<?xml version="1.0" encoding="utf-8"?>
	<routes xmlns:xsi="http://www.w3.org/2001/XMLSchema-instance" xsi:noNamespaceSchemaLocation="http://sumo.dlr.de/xsd/routes_file.xsd">
		<vType id="pkw" length="5.0" width="2.0" minGap="2.5" maxSpeed="11.111" accel="2.0" decel="4.5"/>
		<vehicle id="0" depart="1">
			<route edges="road_2_1_2 road_1_1_2"/>
		</vehicle>
		<vehicle id="1" depart="5">
			<route edges="road_2_1_2 road_1_1_2"/>
		</vehicle>
		<vehicle id="2" depart="7">
			<route edges="road_2_1_2 road_1_1_2"/>
		</vehicle>
		<vehicle id="3" depart="9">
			<route edges="road_2_1_2 road_1_1_2"/>
		</vehicle>
		<vehicle id="4" depart="13">
			<route edges="road_0_1_0 road_1_1_0"/>
		</vehicle>
		<vehicle id="5" depart="14">
			<route edges="road_2_1_2 road_1_1_2"/>
		</vehicle>
		<vehicle id="6" depart="17">
			<route edges="road_2_1_2 road_1_1_2"/>
		</vehicle>
		<vehicle id="7" depart="19">
			<route edges="road_2_1_2 road_1_1_2"/>
		</vehicle>
		<vehicle id="8" depart="20">
			<route edges="road_2_1_2 road_1_1_2"/>
		</vehicle>
		<vehicle id="9" depart="20">
			<route edges="road_2_1_2 road_1_1_3"/>
		</vehicle>
		<vehicle id="10" depart="22">
			<route edges="road_2_1_2 road_1_1_2"/>
		</vehicle>
		<vehicle id="11" depart="26">
			<route edges="road_2_1_2 road_1_1_2"/>
		</vehicle>
		<vehicle id="12" depart="28">
			<route edges="road_2_1_2 road_1_1_2"/>
		</vehicle>
		<vehicle id="13" depart="28">
			<route edges="road_0_1_0 road_1_1_0"/>
		</vehicle>
		<vehicle id="14" depart="30">
			<route edges="road_2_1_2 road_1_1_2"/>
		</vehicle>
		<vehicle id="15" depart="34">
			<route edges="road_1_0_1 road_1_1_1"/>
		</vehicle>
		<vehicle id="16" depart="37">
			<route edges="road_1_0_1 road_1_1_1"/>
		</vehicle>
		<vehicle id="17" depart="41">
			<route edges="road_1_2_3 road_1_1_3"/>
		</vehicle>
		<vehicle id="18" depart="42">
			<route edges="road_0_1_0 road_1_1_0"/>
		</vehicle>
		<vehicle id="19" depart="44">
			<route edges="road_1_2_3 road_1_1_3"/>
		</vehicle>
		<vehicle id="20" depart="51">
			<route edges="road_1_2_3 road_1_1_3"/>
		</vehicle>
		<vehicle id="21" depart="51">
			<route edges="road_1_2_3 road_1_1_0"/>
		</vehicle>
		<vehicle id="22" depart="59">
			<route edges="road_1_2_3 road_1_1_3"/>
		</vehicle>
		<vehicle id="23" depart="59">
			<route edges="road_1_2_3 road_1_1_0"/>
		</vehicle>
		<vehicle id="24" depart="59">
			<route edges="road_1_0_1 road_1_1_1"/>
		</vehicle>
		<vehicle id="25" depart="68">
			<route edges="road_0_1_0 road_1_1_0"/>
		</vehicle>
		<vehicle id="26" depart="77">
			<route edges="road_1_0_1 road_1_1_1"/>
		</vehicle>
		<vehicle id="27" depart="81">
			<route edges="road_1_2_3 road_1_1_3"/>
		</vehicle>
		<vehicle id="28" depart="82">
			<route edges="road_1_0_1 road_1_1_1"/>
		</vehicle>
		<vehicle id="29" depart="84">
			<route edges="road_1_0_1 road_1_1_1"/>
		</vehicle>
		<vehicle id="30" depart="84">
			<route edges="road_0_1_0 road_1_1_0"/>
		</vehicle>
		<vehicle id="31" depart="86">
			<route edges="road_1_2_3 road_1_1_3"/>
		</vehicle>
		<vehicle id="32" depart="89">
			<route edges="road_1_2_3 road_1_1_3"/>
		</vehicle>
		<vehicle id="33" depart="89">
			<route edges="road_1_2_3 road_1_1_0"/>
		</vehicle>
		<vehicle id="34" depart="91">
			<route edges="road_1_2_3 road_1_1_3"/>
		</vehicle>
		<vehicle id="35" depart="91">
			<route edges="road_1_0_1 road_1_1_1"/>
		</vehicle>
		<vehicle id="36" depart="94">
			<route edges="road_1_0_1 road_1_1_1"/>
		</vehicle>
		<vehicle id="37" depart="95">
			<route edges="road_1_2_3 road_1_1_3"/>
		</vehicle>
		<vehicle id="38" depart="96">
			<route edges="road_2_1_2 road_1_1_2"/>
		</vehicle>
		<vehicle id="39" depart="96">
			<route edges="road_1_2_3 road_1_1_3"/>
		</vehicle>
		<vehicle id="40" depart="96">
			<route edges="road_1_2_3 road_1_1_0"/>
		</vehicle>
		<vehicle id="41" depart="98">
			<route edges="road_1_2_3 road_1_1_3"/>
		</vehicle>
		<vehicle id="42" depart="99">
			<route edges="road_1_0_1 road_1_1_1"/>
		</vehicle>
		<vehicle id="43" depart="99">
			<route edges="road_1_0_1 road_1_1_2"/>
		</vehicle>
		<vehicle id="44" depart="101">
			<route edges="road_1_2_3 road_1_1_3"/>
		</vehicle>
		<vehicle id="45" depart="103">
			<route edges="road_1_2_3 road_1_1_3"/>
		</vehicle>
		<vehicle id="46" depart="107">
			<route edges="road_1_2_3 road_1_1_3"/>
		</vehicle>
		<vehicle id="47" depart="111">
			<route edges="road_1_2_3 road_1_1_3"/>
		</vehicle>
		<vehicle id="48" depart="113">
			<route edges="road_0_1_0 road_1_1_0"/>
		</vehicle>
		<vehicle id="49" depart="117">
			<route edges="road_1_2_3 road_1_1_3"/>
		</vehicle>
		<vehicle id="50" depart="120">
			<route edges="road_1_0_1 road_1_1_1"/>
		</vehicle>
		<vehicle id="51" depart="126">
			<route edges="road_2_1_2 road_1_1_2"/>
		</vehicle>
		<vehicle id="52" depart="127">
			<route edges="road_2_1_2 road_1_1_2"/>
		</vehicle>
		<vehicle id="53" depart="127">
			<route edges="road_0_1_0 road_1_1_0"/>
		</vehicle>
		<vehicle id="54" depart="127">
			<route edges="road_1_0_1 road_1_1_1"/>
		</vehicle>
		<vehicle id="55" depart="128">
			<route edges="road_1_0_1 road_1_1_1"/>
		</vehicle>
		<vehicle id="56" depart="130">
			<route edges="road_1_0_1 road_1_1_1"/>
		</vehicle>
		<vehicle id="57" depart="132">
			<route edges="road_0_1_0 road_1_1_0"/>
		</vehicle>
		<vehicle id="58" depart="133">
			<route edges="road_1_0_1 road_1_1_1"/>
		</vehicle>
		<vehicle id="59" depart="133">
			<route edges="road_1_0_1 road_1_1_1"/>
		</vehicle>
		<vehicle id="60" depart="137">
			<route edges="road_1_2_3 road_1_1_3"/>
		</vehicle>
		<vehicle id="61" depart="138">
			<route edges="road_1_0_1 road_1_1_1"/>
		</vehicle>
		<vehicle id="62" depart="138">
			<route edges="road_2_1_2 road_1_1_2"/>
		</vehicle>
		<vehicle id="63" depart="139">
			<route edges="road_0_1_0 road_1_1_0"/>
		</vehicle>
		<vehicle id="64" depart="140">
			<route edges="road_0_1_0 road_1_1_0"/>
		</vehicle>
		<vehicle id="65" depart="141">
			<route edges="road_1_2_3 road_1_1_3"/>
		</vehicle>
		<vehicle id="66" depart="141">
			<route edges="road_2_1_2 road_1_1_2"/>
		</vehicle>
		<vehicle id="67" depart="141">
			<route edges="road_2_1_2 road_1_1_3"/>
		</vehicle>
		<vehicle id="68" depart="143">
			<route edges="road_2_1_2 road_1_1_2"/>
		</vehicle>
		<vehicle id="69" depart="149">
			<route edges="road_0_1_0 road_1_1_0"/>
		</vehicle>
		<vehicle id="70" depart="149">
			<route edges="road_0_1_0 road_1_1_1"/>
		</vehicle>
		<vehicle id="71" depart="152">
			<route edges="road_1_2_3 road_1_1_3"/>
		</vehicle>
		<vehicle id="72" depart="152">
			<route edges="road_0_1_0 road_1_1_0"/>
		</vehicle>
		<vehicle id="73" depart="155">
			<route edges="road_1_2_3 road_1_1_3"/>
		</vehicle>
		<vehicle id="74" depart="164">
			<route edges="road_1_2_3 road_1_1_3"/>
		</vehicle>
		<vehicle id="75" depart="165">
			<route edges="road_2_1_2 road_1_1_2"/>
		</vehicle>
		<vehicle id="76" depart="169">
			<route edges="road_2_1_2 road_1_1_2"/>
		</vehicle>
		<vehicle id="77" depart="169">
			<route edges="road_2_1_2 road_1_1_3"/>
		</vehicle>
		<vehicle id="78" depart="172">
			<route edges="road_2_1_2 road_1_1_2"/>
		</vehicle>
		<vehicle id="79" depart="173">
			<route edges="road_0_1_0 road_1_1_0"/>
		</vehicle>
		<vehicle id="80" depart="173">
			<route edges="road_2_1_2 road_1_1_2"/>
		</vehicle>
		<vehicle id="81" depart="176">
			<route edges="road_1_2_3 road_1_1_3"/>
		</vehicle>
		<vehicle id="82" depart="177">
			<route edges="road_0_1_0 road_1_1_0"/>
		</vehicle>
		<vehicle id="83" depart="177">
			<route edges="road_0_1_0 road_1_1_1"/>
		</vehicle>
		<vehicle id="84" depart="177">
			<route edges="road_2_1_2 road_1_1_2"/>
		</vehicle>
		<vehicle id="85" depart="182">
			<route edges="road_2_1_2 road_1_1_2"/>
		</vehicle>
		<vehicle id="86" depart="182">
			<route edges="road_0_1_0 road_1_1_0"/>
		</vehicle>
		<vehicle id="87" depart="183">
			<route edges="road_1_2_3 road_1_1_3"/>
		</vehicle>
		<vehicle id="88" depart="184">
			<route edges="road_1_2_3 road_1_1_3"/>
		</vehicle>
		<vehicle id="89" depart="185">
			<route edges="road_2_1_2 road_1_1_2"/>
		</vehicle>
		<vehicle id="90" depart="185">
			<route edges="road_2_1_2 road_1_1_2"/>
		</vehicle>
		<vehicle id="91" depart="193">
			<route edges="road_2_1_2 road_1_1_2"/>
		</vehicle>
		<vehicle id="92" depart="194">
			<route edges="road_0_1_0 road_1_1_0"/>
		</vehicle>
		<vehicle id="93" depart="195">
			<route edges="road_2_1_2 road_1_1_2"/>
		</vehicle>
		<vehicle id="94" depart="195">
			<route edges="road_2_1_2 road_1_1_3"/>
		</vehicle>
		<vehicle id="95" depart="201">
			<route edges="road_1_2_3 road_1_1_3"/>
		</vehicle>
		<vehicle id="96" depart="212">
			<route edges="road_1_2_3 road_1_1_3"/>
		</vehicle>
		<vehicle id="97" depart="217">
			<route edges="road_0_1_0 road_1_1_0"/>
		</vehicle>
		<vehicle id="98" depart="221">
			<route edges="road_1_0_1 road_1_1_1"/>
		</vehicle>
		<vehicle id="99" depart="223">
			<route edges="road_1_0_1 road_1_1_1"/>
		</vehicle>
		<vehicle id="100" depart="225">
			<route edges="road_1_2_3 road_1_1_3"/>
		</vehicle>
		<vehicle id="101" depart="228">
			<route edges="road_1_2_3 road_1_1_3"/>
		</vehicle>
		<vehicle id="102" depart="228">
			<route edges="road_1_2_3 road_1_1_0"/>
		</vehicle>
		<vehicle id="103" depart="233">
			<route edges="road_1_2_3 road_1_1_3"/>
		</vehicle>
		<vehicle id="104" depart="233">
			<route edges="road_1_2_3 road_1_1_0"/>
		</vehicle>
		<vehicle id="105" depart="242">
			<route edges="road_1_2_3 road_1_1_3"/>
		</vehicle>
		<vehicle id="106" depart="245">
			<route edges="road_1_2_3 road_1_1_3"/>
		</vehicle>
		<vehicle id="107" depart="254">
			<route edges="road_1_2_3 road_1_1_3"/>
		</vehicle>
		<vehicle id="108" depart="254">
			<route edges="road_1_2_3 road_1_1_3"/>
		</vehicle>
		<vehicle id="109" depart="256">
			<route edges="road_1_2_3 road_1_1_3"/>
		</vehicle>
		<vehicle id="110" depart="261">
			<route edges="road_1_2_3 road_1_1_3"/>
		</vehicle>
		<vehicle id="111" depart="263">
			<route edges="road_1_2_3 road_1_1_3"/>
		</vehicle>
		<vehicle id="112" depart="263">
			<route edges="road_1_2_3 road_1_1_0"/>
		</vehicle>
		<vehicle id="113" depart="264">
			<route edges="road_1_2_3 road_1_1_3"/>
		</vehicle>
		<vehicle id="114" depart="269">
			<route edges="road_1_0_1 road_1_1_1"/>
		</vehicle>
		<vehicle id="115" depart="269">
			<route edges="road_1_2_3 road_1_1_3"/>
		</vehicle>
		<vehicle id="116" depart="272">
			<route edges="road_1_2_3 road_1_1_3"/>
		</vehicle>
		<vehicle id="117" depart="275">
			<route edges="road_1_2_3 road_1_1_3"/>
		</vehicle>
		<vehicle id="118" depart="275">
			<route edges="road_1_2_3 road_1_1_0"/>
		</vehicle>
		<vehicle id="119" depart="285">
			<route edges="road_1_0_1 road_1_1_1"/>
		</vehicle>
		<vehicle id="120" depart="299">
			<route edges="road_0_1_0 road_1_1_0"/>
		</vehicle>
		<vehicle id="121" depart="304">
			<route edges="road_1_2_3 road_1_1_3"/>
		</vehicle>
		<vehicle id="122" depart="305">
			<route edges="road_0_1_0 road_1_1_0"/>
		</vehicle>
		<vehicle id="123" depart="306">
			<route edges="road_1_2_3 road_1_1_3"/>
		</vehicle>
		<vehicle id="124" depart="308">
			<route edges="road_2_1_2 road_1_1_2"/>
		</vehicle>
		<vehicle id="125" depart="310">
			<route edges="road_0_1_0 road_1_1_0"/>
		</vehicle>
		<vehicle id="126" depart="311">
			<route edges="road_2_1_2 road_1_1_2"/>
		</vehicle>
		<vehicle id="127" depart="315">
			<route edges="road_1_2_3 road_1_1_3"/>
		</vehicle>
		<vehicle id="128" depart="316">
			<route edges="road_0_1_0 road_1_1_0"/>
		</vehicle>
		<vehicle id="129" depart="316">
			<route edges="road_0_1_0 road_1_1_1"/>
		</vehicle>
		<vehicle id="130" depart="316">
			<route edges="road_1_0_1 road_1_1_1"/>
		</vehicle>
		<vehicle id="131" depart="319">
			<route edges="road_2_1_2 road_1_1_2"/>
		</vehicle>
		<vehicle id="132" depart="320">
			<route edges="road_0_1_0 road_1_1_0"/>
		</vehicle>
		<vehicle id="133" depart="321">
			<route edges="road_1_2_3 road_1_1_3"/>
		</vehicle>
		<vehicle id="134" depart="321">
			<route edges="road_1_2_3 road_1_1_0"/>
		</vehicle>
		<vehicle id="135" depart="321">
			<route edges="road_0_1_0 road_1_1_0"/>
		</vehicle>
		<vehicle id="136" depart="323">
			<route edges="road_0_1_0 road_1_1_0"/>
		</vehicle>
		<vehicle id="137" depart="323">
			<route edges="road_1_0_1 road_1_1_1"/>
		</vehicle>
		<vehicle id="138" depart="323">
			<route edges="road_1_0_1 road_1_1_2"/>
		</vehicle>
		<vehicle id="139" depart="329">
			<route edges="road_0_1_0 road_1_1_0"/>
		</vehicle>
		<vehicle id="140" depart="329">
			<route edges="road_0_1_0 road_1_1_1"/>
		</vehicle>
		<vehicle id="141" depart="330">
			<route edges="road_1_2_3 road_1_1_3"/>
		</vehicle>
		<vehicle id="142" depart="332">
			<route edges="road_2_1_2 road_1_1_2"/>
		</vehicle>
		<vehicle id="143" depart="335">
			<route edges="road_2_1_2 road_1_1_2"/>
		</vehicle>
		<vehicle id="144" depart="336">
			<route edges="road_0_1_0 road_1_1_0"/>
		</vehicle>
		<vehicle id="145" depart="341">
			<route edges="road_2_1_2 road_1_1_2"/>
		</vehicle>
		<vehicle id="146" depart="345">
			<route edges="road_2_1_2 road_1_1_2"/>
		</vehicle>
		<vehicle id="147" depart="348">
			<route edges="road_0_1_0 road_1_1_0"/>
		</vehicle>
		<vehicle id="148" depart="348">
			<route edges="road_0_1_0 road_1_1_0"/>
		</vehicle>
		<vehicle id="149" depart="349">
			<route edges="road_2_1_2 road_1_1_2"/>
		</vehicle>
		<vehicle id="150" depart="349">
			<route edges="road_2_1_2 road_1_1_2"/>
		</vehicle>
		<vehicle id="151" depart="351">
			<route edges="road_0_1_0 road_1_1_0"/>
		</vehicle>
		<vehicle id="152" depart="357">
			<route edges="road_0_1_0 road_1_1_0"/>
		</vehicle>
		<vehicle id="153" depart="358">
			<route edges="road_0_1_0 road_1_1_0"/>
		</vehicle>
		<vehicle id="154" depart="358">
			<route edges="road_2_1_2 road_1_1_2"/>
		</vehicle>
		<vehicle id="155" depart="364">
			<route edges="road_0_1_0 road_1_1_0"/>
		</vehicle>
		<vehicle id="156" depart="365">
			<route edges="road_2_1_2 road_1_1_2"/>
		</vehicle>
		<vehicle id="157" depart="367">
			<route edges="road_2_1_2 road_1_1_2"/>
		</vehicle>
		<vehicle id="158" depart="368">
			<route edges="road_0_1_0 road_1_1_0"/>
		</vehicle>
		<vehicle id="159" depart="369">
			<route edges="road_0_1_0 road_1_1_0"/>
		</vehicle>
		<vehicle id="160" depart="371">
			<route edges="road_1_2_3 road_1_1_3"/>
		</vehicle>
		<vehicle id="161" depart="373">
			<route edges="road_1_2_3 road_1_1_3"/>
		</vehicle>
		<vehicle id="162" depart="374">
			<route edges="road_0_1_0 road_1_1_0"/>
		</vehicle>
		<vehicle id="163" depart="375">
			<route edges="road_0_1_0 road_1_1_0"/>
		</vehicle>
		<vehicle id="164" depart="377">
			<route edges="road_2_1_2 road_1_1_2"/>
		</vehicle>
		<vehicle id="165" depart="377">
			<route edges="road_2_1_2 road_1_1_3"/>
		</vehicle>
		<vehicle id="166" depart="380">
			<route edges="road_2_1_2 road_1_1_2"/>
		</vehicle>
		<vehicle id="167" depart="380">
			<route edges="road_0_1_0 road_1_1_0"/>
		</vehicle>
		<vehicle id="168" depart="382">
			<route edges="road_2_1_2 road_1_1_2"/>
		</vehicle>
		<vehicle id="169" depart="382">
			<route edges="road_0_1_0 road_1_1_0"/>
		</vehicle>
		<vehicle id="170" depart="384">
			<route edges="road_1_2_3 road_1_1_3"/>
		</vehicle>
		<vehicle id="171" depart="385">
			<route edges="road_2_1_2 road_1_1_2"/>
		</vehicle>
		<vehicle id="172" depart="386">
			<route edges="road_1_2_3 road_1_1_3"/>
		</vehicle>
		<vehicle id="173" depart="387">
			<route edges="road_0_1_0 road_1_1_0"/>
		</vehicle>
		<vehicle id="174" depart="389">
			<route edges="road_2_1_2 road_1_1_2"/>
		</vehicle>
		<vehicle id="175" depart="389">
			<route edges="road_2_1_2 road_1_1_3"/>
		</vehicle>
		<vehicle id="176" depart="390">
			<route edges="road_2_1_2 road_1_1_2"/>
		</vehicle>
		<vehicle id="177" depart="391">
			<route edges="road_2_1_2 road_1_1_2"/>
		</vehicle>
		<vehicle id="178" depart="392">
			<route edges="road_2_1_2 road_1_1_2"/>
		</vehicle>
		<vehicle id="179" depart="395">
			<route edges="road_1_2_3 road_1_1_3"/>
		</vehicle>
		<vehicle id="180" depart="399">
			<route edges="road_0_1_0 road_1_1_0"/>
		</vehicle>
		<vehicle id="181" depart="400">
			<route edges="road_1_2_3 road_1_1_3"/>
		</vehicle>
		<vehicle id="182" depart="400">
			<route edges="road_1_2_3 road_1_1_0"/>
		</vehicle>
		<vehicle id="183" depart="406">
			<route edges="road_1_2_3 road_1_1_3"/>
		</vehicle>
		<vehicle id="184" depart="417">
			<route edges="road_1_2_3 road_1_1_3"/>
		</vehicle>
		<vehicle id="185" depart="432">
			<route edges="road_0_1_0 road_1_1_0"/>
		</vehicle>
		<vehicle id="186" depart="436">
			<route edges="road_1_2_3 road_1_1_3"/>
		</vehicle>
		<vehicle id="187" depart="437">
			<route edges="road_1_0_1 road_1_1_1"/>
		</vehicle>
		<vehicle id="188" depart="439">
			<route edges="road_1_2_3 road_1_1_3"/>
		</vehicle>
		<vehicle id="189" depart="441">
			<route edges="road_1_2_3 road_1_1_3"/>
		</vehicle>
		<vehicle id="190" depart="442">
			<route edges="road_1_0_1 road_1_1_1"/>
		</vehicle>
		<vehicle id="191" depart="444">
			<route edges="road_1_0_1 road_1_1_1"/>
		</vehicle>
		<vehicle id="192" depart="446">
			<route edges="road_1_2_3 road_1_1_3"/>
		</vehicle>
		<vehicle id="193" depart="454">
			<route edges="road_1_2_3 road_1_1_3"/>
		</vehicle>
		<vehicle id="194" depart="456">
			<route edges="road_1_0_1 road_1_1_1"/>
		</vehicle>
		<vehicle id="195" depart="463">
			<route edges="road_1_2_3 road_1_1_3"/>
		</vehicle>
		<vehicle id="196" depart="466">
			<route edges="road_2_1_2 road_1_1_2"/>
		</vehicle>
		<vehicle id="197" depart="466">
			<route edges="road_2_1_2 road_1_1_3"/>
		</vehicle>
		<vehicle id="198" depart="471">
			<route edges="road_1_2_3 road_1_1_3"/>
		</vehicle>
		<vehicle id="199" depart="478">
			<route edges="road_1_0_1 road_1_1_1"/>
		</vehicle>
		<vehicle id="200" depart="482">
			<route edges="road_2_1_2 road_1_1_2"/>
		</vehicle>
		<vehicle id="201" depart="484">
			<route edges="road_0_1_0 road_1_1_0"/>
		</vehicle>
		<vehicle id="202" depart="484">
			<route edges="road_0_1_0 road_1_1_1"/>
		</vehicle>
		<vehicle id="203" depart="491">
			<route edges="road_1_2_3 road_1_1_3"/>
		</vehicle>
		<vehicle id="204" depart="491">
			<route edges="road_2_1_2 road_1_1_2"/>
		</vehicle>
		<vehicle id="205" depart="505">
			<route edges="road_2_1_2 road_1_1_2"/>
		</vehicle>
		<vehicle id="206" depart="506">
			<route edges="road_1_2_3 road_1_1_3"/>
		</vehicle>
		<vehicle id="207" depart="508">
			<route edges="road_0_1_0 road_1_1_0"/>
		</vehicle>
		<vehicle id="208" depart="509">
			<route edges="road_2_1_2 road_1_1_2"/>
		</vehicle>
		<vehicle id="209" depart="513">
			<route edges="road_0_1_0 road_1_1_0"/>
		</vehicle>
		<vehicle id="210" depart="513">
			<route edges="road_0_1_0 road_1_1_1"/>
		</vehicle>
		<vehicle id="211" depart="521">
			<route edges="road_0_1_0 road_1_1_0"/>
		</vehicle>
		<vehicle id="212" depart="528">
			<route edges="road_0_1_0 road_1_1_0"/>
		</vehicle>
		<vehicle id="213" depart="528">
			<route edges="road_0_1_0 road_1_1_1"/>
		</vehicle>
		<vehicle id="214" depart="529">
			<route edges="road_0_1_0 road_1_1_0"/>
		</vehicle>
		<vehicle id="215" depart="530">
			<route edges="road_2_1_2 road_1_1_2"/>
		</vehicle>
		<vehicle id="216" depart="531">
			<route edges="road_0_1_0 road_1_1_0"/>
		</vehicle>
		<vehicle id="217" depart="534">
			<route edges="road_2_1_2 road_1_1_2"/>
		</vehicle>
		<vehicle id="218" depart="536">
			<route edges="road_2_1_2 road_1_1_2"/>
		</vehicle>
		<vehicle id="219" depart="536">
			<route edges="road_0_1_0 road_1_1_0"/>
		</vehicle>
		<vehicle id="220" depart="538">
			<route edges="road_0_1_0 road_1_1_0"/>
		</vehicle>
		<vehicle id="221" depart="542">
			<route edges="road_0_1_0 road_1_1_0"/>
		</vehicle>
		<vehicle id="222" depart="542">
			<route edges="road_2_1_2 road_1_1_2"/>
		</vehicle>
		<vehicle id="223" depart="543">
			<route edges="road_1_2_3 road_1_1_3"/>
		</vehicle>
		<vehicle id="224" depart="543">
			<route edges="road_0_1_0 road_1_1_0"/>
		</vehicle>
		<vehicle id="225" depart="545">
			<route edges="road_0_1_0 road_1_1_0"/>
		</vehicle>
		<vehicle id="226" depart="546">
			<route edges="road_2_1_2 road_1_1_2"/>
		</vehicle>
		<vehicle id="227" depart="546">
			<route edges="road_2_1_2 road_1_1_3"/>
		</vehicle>
		<vehicle id="228" depart="548">
			<route edges="road_2_1_2 road_1_1_2"/>
		</vehicle>
		<vehicle id="229" depart="549">
			<route edges="road_2_1_2 road_1_1_2"/>
		</vehicle>
		<vehicle id="230" depart="554">
			<route edges="road_0_1_0 road_1_1_0"/>
		</vehicle>
		<vehicle id="231" depart="559">
			<route edges="road_0_1_0 road_1_1_0"/>
		</vehicle>
		<vehicle id="232" depart="562">
			<route edges="road_0_1_0 road_1_1_0"/>
		</vehicle>
		<vehicle id="233" depart="567">
			<route edges="road_2_1_2 road_1_1_2"/>
		</vehicle>
		<vehicle id="234" depart="567">
			<route edges="road_2_1_2 road_1_1_3"/>
		</vehicle>
		<vehicle id="235" depart="577">
			<route edges="road_1_0_1 road_1_1_1"/>
		</vehicle>
		<vehicle id="236" depart="582">
			<route edges="road_1_2_3 road_1_1_3"/>
		</vehicle>
		<vehicle id="237" depart="586">
			<route edges="road_2_1_2 road_1_1_2"/>
		</vehicle>
		<vehicle id="238" depart="586">
			<route edges="road_2_1_2 road_1_1_3"/>
		</vehicle>
		<vehicle id="239" depart="591">
			<route edges="road_0_1_0 road_1_1_0"/>
		</vehicle>
		<vehicle id="240" depart="591">
			<route edges="road_0_1_0 road_1_1_1"/>
		</vehicle>
		<vehicle id="241" depart="615">
			<route edges="road_1_0_1 road_1_1_1"/>
		</vehicle>
		<vehicle id="242" depart="617">
			<route edges="road_1_0_1 road_1_1_1"/>
		</vehicle>
		<vehicle id="243" depart="621">
			<route edges="road_1_2_3 road_1_1_3"/>
		</vehicle>
		<vehicle id="244" depart="621">
			<route edges="road_1_2_3 road_1_1_0"/>
		</vehicle>
		<vehicle id="245" depart="624">
			<route edges="road_1_2_3 road_1_1_3"/>
		</vehicle>
		<vehicle id="246" depart="628">
			<route edges="road_1_2_3 road_1_1_3"/>
		</vehicle>
		<vehicle id="247" depart="629">
			<route edges="road_1_2_3 road_1_1_3"/>
		</vehicle>
		<vehicle id="248" depart="629">
			<route edges="road_1_2_3 road_1_1_0"/>
		</vehicle>
		<vehicle id="249" depart="629">
			<route edges="road_1_2_3 road_1_1_3"/>
		</vehicle>
		<vehicle id="250" depart="630">
			<route edges="road_1_0_1 road_1_1_1"/>
		</vehicle>
		<vehicle id="251" depart="631">
			<route edges="road_1_2_3 road_1_1_3"/>
		</vehicle>
		<vehicle id="252" depart="632">
			<route edges="road_1_2_3 road_1_1_3"/>
		</vehicle>
		<vehicle id="253" depart="633">
			<route edges="road_1_0_1 road_1_1_1"/>
		</vehicle>
		<vehicle id="254" depart="634">
			<route edges="road_1_2_3 road_1_1_3"/>
		</vehicle>
		<vehicle id="255" depart="635">
			<route edges="road_1_0_1 road_1_1_1"/>
		</vehicle>
		<vehicle id="256" depart="636">
			<route edges="road_1_2_3 road_1_1_3"/>
		</vehicle>
		<vehicle id="257" depart="636">
			<route edges="road_1_2_3 road_1_1_0"/>
		</vehicle>
		<vehicle id="258" depart="637">
			<route edges="road_1_2_3 road_1_1_3"/>
		</vehicle>
		<vehicle id="259" depart="641">
			<route edges="road_0_1_0 road_1_1_0"/>
		</vehicle>
		<vehicle id="260" depart="641">
			<route edges="road_0_1_0 road_1_1_1"/>
		</vehicle>
		<vehicle id="261" depart="641">
			<route edges="road_2_1_2 road_1_1_2"/>
		</vehicle>
		<vehicle id="262" depart="642">
			<route edges="road_1_2_3 road_1_1_3"/>
		</vehicle>
		<vehicle id="263" depart="642">
			<route edges="road_1_2_3 road_1_1_3"/>
		</vehicle>
		<vehicle id="264" depart="648">
			<route edges="road_1_2_3 road_1_1_3"/>
		</vehicle>
		<vehicle id="265" depart="654">
			<route edges="road_0_1_0 road_1_1_0"/>
		</vehicle>
		<vehicle id="266" depart="667">
			<route edges="road_2_1_2 road_1_1_2"/>
		</vehicle>
		<vehicle id="267" depart="673">
			<route edges="road_0_1_0 road_1_1_0"/>
		</vehicle>
		<vehicle id="268" depart="678">
			<route edges="road_2_1_2 road_1_1_2"/>
		</vehicle>
		<vehicle id="269" depart="679">
			<route edges="road_0_1_0 road_1_1_0"/>
		</vehicle>
		<vehicle id="270" depart="684">
			<route edges="road_2_1_2 road_1_1_2"/>
		</vehicle>
		<vehicle id="271" depart="684">
			<route edges="road_0_1_0 road_1_1_0"/>
		</vehicle>
		<vehicle id="272" depart="685">
			<route edges="road_1_2_3 road_1_1_3"/>
		</vehicle>
		<vehicle id="273" depart="698">
			<route edges="road_1_2_3 road_1_1_3"/>
		</vehicle>
		<vehicle id="274" depart="700">
			<route edges="road_1_2_3 road_1_1_3"/>
		</vehicle>
		<vehicle id="275" depart="705">
			<route edges="road_2_1_2 road_1_1_2"/>
		</vehicle>
		<vehicle id="276" depart="705">
			<route edges="road_2_1_2 road_1_1_3"/>
		</vehicle>
		<vehicle id="277" depart="705">
			<route edges="road_2_1_2 road_1_1_2"/>
		</vehicle>
		<vehicle id="278" depart="705">
			<route edges="road_2_1_2 road_1_1_3"/>
		</vehicle>
		<vehicle id="279" depart="706">
			<route edges="road_0_1_0 road_1_1_0"/>
		</vehicle>
		<vehicle id="280" depart="708">
			<route edges="road_2_1_2 road_1_1_2"/>
		</vehicle>
		<vehicle id="281" depart="708">
			<route edges="road_2_1_2 road_1_1_3"/>
		</vehicle>
		<vehicle id="282" depart="709">
			<route edges="road_2_1_2 road_1_1_2"/>
		</vehicle>
		<vehicle id="283" depart="711">
			<route edges="road_1_2_3 road_1_1_3"/>
		</vehicle>
		<vehicle id="284" depart="711">
			<route edges="road_0_1_0 road_1_1_0"/>
		</vehicle>
		<vehicle id="285" depart="716">
			<route edges="road_2_1_2 road_1_1_2"/>
		</vehicle>
		<vehicle id="286" depart="717">
			<route edges="road_2_1_2 road_1_1_2"/>
		</vehicle>
		<vehicle id="287" depart="718">
			<route edges="road_2_1_2 road_1_1_2"/>
		</vehicle>
		<vehicle id="288" depart="718">
			<route edges="road_2_1_2 road_1_1_3"/>
		</vehicle>
		<vehicle id="289" depart="720">
			<route edges="road_0_1_0 road_1_1_0"/>
		</vehicle>
		<vehicle id="290" depart="721">
			<route edges="road_1_2_3 road_1_1_3"/>
		</vehicle>
		<vehicle id="291" depart="722">
			<route edges="road_2_1_2 road_1_1_2"/>
		</vehicle>
		<vehicle id="292" depart="722">
			<route edges="road_1_0_1 road_1_1_1"/>
		</vehicle>
		<vehicle id="293" depart="725">
			<route edges="road_2_1_2 road_1_1_2"/>
		</vehicle>
		<vehicle id="294" depart="728">
			<route edges="road_0_1_0 road_1_1_0"/>
		</vehicle>
		<vehicle id="295" depart="729">
			<route edges="road_1_0_1 road_1_1_1"/>
		</vehicle>
		<vehicle id="296" depart="730">
			<route edges="road_0_1_0 road_1_1_0"/>
		</vehicle>
		<vehicle id="297" depart="730">
			<route edges="road_2_1_2 road_1_1_2"/>
		</vehicle>
		<vehicle id="298" depart="732">
			<route edges="road_0_1_0 road_1_1_0"/>
		</vehicle>
		<vehicle id="299" depart="732">
			<route edges="road_0_1_0 road_1_1_1"/>
		</vehicle>
		<vehicle id="300" depart="734">
			<route edges="road_0_1_0 road_1_1_0"/>
		</vehicle>
		<vehicle id="301" depart="734">
			<route edges="road_0_1_0 road_1_1_0"/>
		</vehicle>
		<vehicle id="302" depart="737">
			<route edges="road_0_1_0 road_1_1_0"/>
		</vehicle>
		<vehicle id="303" depart="762">
			<route edges="road_0_1_0 road_1_1_0"/>
		</vehicle>
		<vehicle id="304" depart="763">
			<route edges="road_1_2_3 road_1_1_3"/>
		</vehicle>
		<vehicle id="305" depart="765">
			<route edges="road_1_2_3 road_1_1_3"/>
		</vehicle>
		<vehicle id="306" depart="767">
			<route edges="road_1_0_1 road_1_1_1"/>
		</vehicle>
		<vehicle id="307" depart="767">
			<route edges="road_1_2_3 road_1_1_3"/>
		</vehicle>
		<vehicle id="308" depart="767">
			<route edges="road_1_2_3 road_1_1_0"/>
		</vehicle>
		<vehicle id="309" depart="769">
			<route edges="road_1_2_3 road_1_1_3"/>
		</vehicle>
		<vehicle id="310" depart="773">
			<route edges="road_0_1_0 road_1_1_0"/>
		</vehicle>
		<vehicle id="311" depart="777">
			<route edges="road_2_1_2 road_1_1_2"/>
		</vehicle>
		<vehicle id="312" depart="786">
			<route edges="road_0_1_0 road_1_1_0"/>
		</vehicle>
		<vehicle id="313" depart="790">
			<route edges="road_0_1_0 road_1_1_0"/>
		</vehicle>
		<vehicle id="314" depart="790">
			<route edges="road_1_2_3 road_1_1_3"/>
		</vehicle>
		<vehicle id="315" depart="792">
			<route edges="road_0_1_0 road_1_1_0"/>
		</vehicle>
		<vehicle id="316" depart="798">
			<route edges="road_1_2_3 road_1_1_3"/>
		</vehicle>
		<vehicle id="317" depart="800">
			<route edges="road_1_2_3 road_1_1_3"/>
		</vehicle>
		<vehicle id="318" depart="800">
			<route edges="road_1_0_1 road_1_1_1"/>
		</vehicle>
		<vehicle id="319" depart="803">
			<route edges="road_1_2_3 road_1_1_3"/>
		</vehicle>
		<vehicle id="320" depart="804">
			<route edges="road_1_0_1 road_1_1_1"/>
		</vehicle>
		<vehicle id="321" depart="804">
			<route edges="road_1_0_1 road_1_1_2"/>
		</vehicle>
		<vehicle id="322" depart="805">
			<route edges="road_1_2_3 road_1_1_3"/>
		</vehicle>
		<vehicle id="323" depart="805">
			<route edges="road_1_2_3 road_1_1_0"/>
		</vehicle>
		<vehicle id="324" depart="806">
			<route edges="road_1_2_3 road_1_1_3"/>
		</vehicle>
		<vehicle id="325" depart="808">
			<route edges="road_1_0_1 road_1_1_1"/>
		</vehicle>
		<vehicle id="326" depart="812">
			<route edges="road_1_0_1 road_1_1_1"/>
		</vehicle>
		<vehicle id="327" depart="813">
			<route edges="road_1_2_3 road_1_1_3"/>
		</vehicle>
		<vehicle id="328" depart="814">
			<route edges="road_1_0_1 road_1_1_1"/>
		</vehicle>
		<vehicle id="329" depart="815">
			<route edges="road_2_1_2 road_1_1_2"/>
		</vehicle>
		<vehicle id="330" depart="815">
			<route edges="road_1_2_3 road_1_1_3"/>
		</vehicle>
		<vehicle id="331" depart="819">
			<route edges="road_1_0_1 road_1_1_1"/>
		</vehicle>
		<vehicle id="332" depart="819">
			<route edges="road_1_2_3 road_1_1_3"/>
		</vehicle>
		<vehicle id="333" depart="822">
			<route edges="road_1_2_3 road_1_1_3"/>
		</vehicle>
		<vehicle id="334" depart="822">
			<route edges="road_1_0_1 road_1_1_1"/>
		</vehicle>
		<vehicle id="335" depart="822">