<?xml version="1.0" encoding="UTF-8"?>
<routes xmlns:xsi="http://www.w3.org/2001/XMLSchema-instance" xsi:noNamespaceSchemaLocation="http://sumo.dlr.de/xsd/routes_file.xsd">

    <vType id="car" accel="2.6" decel="4.5" sigma="0.5" length="5" minGap="2.5" maxSpeed="15" guiShape="passenger"/>

    <route id="r_N2S" edges="N2TLS TLS2S"/> <route id="r_N2E" edges="N2TLS TLS2E"/> <route id="r_S2N" edges="S2TLS TLS2N"/> <route id="r_E2W" edges="E2TLS TLS2W"/> <route id="r_W2E" edges="W2TLS TLS2E"/> <route id="r_W2N" edges="W2TLS TLS2N"/> <vehicle id="test_seg1_queued" type="car" route="r_N2S" depart="0" departPos="180" departSpeed="0"/>
    
    <vehicle id="test_seg2_moving" type="car" route="r_N2S" depart="0" departPos="100" departSpeed="10"/>
    
    <vehicle id="test_seg3_moving" type="car" route="r_N2S" depart="0" departPos="30" departSpeed="10"/>


    <vehicle id="test_left1_queued" type="car" route="r_N2E" depart="0" departPos="180" departSpeed="0"/>
    <vehicle id="test_left2_queued" type="car" route="r_N2E" depart="0" departPos="172" departSpeed="0"/>

    <flow id="flow_E2W" type="car" route="r_E2W" begin="0" end="3600" probability="0.15"/>
    <flow id="flow_W2E" type="car" route="r_W2E" begin="0" end="3600" probability="0.15"/>
    <flow id="flow_S2N" type="car" route="r_S2N" begin="0" end="3600" probability="0.10"/>
    <flow id="flow_W2N" type="car" route="r_W2N" begin="0" end="3600" probability="0.05"/>

</routes>