<?xml version="1.0" encoding="UTF-8"?>

<configuration xmlns:xsi="http://www.w3.org/2001/XMLSchema-instance"
               xsi:noNamespaceSchemaLocation="http://sumo.dlr.de/xsd/sumoConfiguration.xsd">

    <input>
        <net-file   value="net.xml"/>
        <route-files value="flow.rou.xml"/>
    </input>

    <time>
        <begin       value="0"/>
        <end         value="3600"/>
        <step-length value="1.0"/>
    </time>

    <processing>
        <ignore-route-errors value="true"/>
        <collision.action    value="warn"/>
    </processing>

    <report>
        <no-step-log value="true"/>
        <no-warnings value="false"/>
        <duration-log.statistics value="true"/>
    </report>

</configuration>
