<?xml version="1.0" encoding="utf-8"?>
<connections version="1.1" xmlns:xsi="http://www.w3.org/2001/XMLSchema-instance" xsi:noNamespaceSchemaLocation="http://sumo.dlr.de/xsd/connections_file.xsd">
	<connection from="-227078004" to="508809477#0" fromLane="0" toLane="0"/>
	<connection from="-405366773" to="-313036847" fromLane="0" toLane="1"/>
	<connection from="-405366773" to="-313036847" fromLane="0" toLane="0"/>
	<connection from="-405366773" to="-405367634" fromLane="2" toLane="2"/>
	<connection from="-405366773" to="-405367634" fromLane="2" toLane="1"/>
	<connection from="-405366773" to="-405367634" fromLane="2" toLane="0"/>
	<connection from="-405366773" to="-405367634" fromLane="1" toLane="2"/>
	<connection from="-405366773" to="-405367634" fromLane="1" toLane="1"/>
	<connection from="-405366773" to="-405367634" fromLane="1" toLane="0"/>
	<connection from="-405366773" to="-405367634" fromLane="0" toLane="2"/>
	<connection from="-405366773" to="-405367634" fromLane="0" toLane="1"/>
	<connection from="-405366773" to="-405367634" fromLane="0" toLane="0"/>
	<connection from="-405366773" to="-227078004" fromLane="3" toLane="0"/>
	<connection from="-405366773" to="405366773" fromLane="4" toLane="2"/>
	<connection from="-405366773" to="405366773" fromLane="4" toLane="1"/>
	<connection from="-405366773" to="405366773" fromLane="4" toLane="0"/>
	<connection from="313036847" to="-405367634" fromLane="0" toLane="2"/>
	<connection from="313036847" to="-405367634" fromLane="0" toLane="1"/>
	<connection from="313036847" to="-405367634" fromLane="0" toLane="0"/>
	<connection from="313036847" to="-227078004" fromLane="0" toLane="0"/>
	<connection from="313036847" to="405366773" fromLane="1" toLane="2"/>
	<connection from="313036847" to="405366773" fromLane="1" toLane="1"/>
	<connection from="313036847" to="405366773" fromLane="1" toLane="0"/>
	<connection from="313036847" to="-313036847" fromLane="1" toLane="1"/>
	<connection from="313036847" to="-313036847" fromLane="1" toLane="0"/>
	<connection from="405367634" to="-227078004" fromLane="0" toLane="0"/>
	<connection from="405367634" to="405366773" fromLane="2" toLane="2"/>
	<connection from="405367634" to="405366773" fromLane="2" toLane="1"/>
	<connection from="405367634" to="405366773" fromLane="2" toLane="0"/>
	<connection from="405367634" to="405366773" fromLane="1" toLane="2"/>
	<connection from="405367634" to="405366773" fromLane="1" toLane="1"/>
	<connection from="405367634" to="405366773" fromLane="1" toLane="0"/>
	<connection from="405367634" to="405366773" fromLane="0" toLane="2"/>
	<connection from="405367634" to="405366773" fromLane="0" toLane="1"/>
	<connection from="405367634" to="405366773" fromLane="0" toLane="0"/>
	<connection from="405367634" to="-313036847" fromLane="3" toLane="1"/>
	<connection from="405367634" to="-313036847" fromLane="3" toLane="0"/>
	<connection from="508809477#0" to="405366773" fromLane="0" toLane="2"/>
	<connection from="508809477#0" to="405366773" fromLane="0" toLane="1"/>
	<connection from="508809477#0" to="405366773" fromLane="0" toLane="0"/>
	<connection from="508809477#0" to="-313036847" fromLane="0" toLane="1"/>
	<connection from="508809477#0" to="-313036847" fromLane="0" toLane="0"/>
	<connection from="508809477#0" to="-405367634" fromLane="0" toLane="2"/>
	<connection from="508809477#0" to="-405367634" fromLane="0" toLane="1"/>
	<connection from="508809477#0" to="-405367634" fromLane="0" toLane="0"/>
	<connection from="508809477#0" to="-227078004" fromLane="0" toLane="0"/>
	<connection from="-13400999" to="13400999" fromLane="0" toLane="0"/>
	<connection from="-182456135" to="182456135" fromLane="3" toLane="4"/>
	<connection from="-182456135" to="182456135" fromLane="3" toLane="3"/>
	<connection from="-182456135" to="182456135" fromLane="3" toLane="2"/>
	<connection from="-182456135" to="182456135" fromLane="3" toLane="1"/>
	<connection from="-182456135" to="182456135" fromLane="3" toLane="0"/>
	<connection from="-405367638" to="-405367640" fromLane="2" toLane="2"/>
	<connection from="-405367638" to="-405367640" fromLane="2" toLane="1"/>
	<connection from="-405367638" to="-405367640" fromLane="2" toLane="0"/>
	<connection from="-405367638" to="-405367640" fromLane="1" toLane="2"/>
	<connection from="-405367638" to="-405367640" fromLane="1" toLane="1"/>
	<connection from="-405367638" to="-405367640" fromLane="1" toLane="0"/>
	<connection from="-405367638" to="-405367640" fromLane="0" toLane="2"/>
	<connection from="-405367638" to="-405367640" fromLane="0" toLane="1"/>
	<connection from="-405367638" to="-405367640" fromLane="0" toLane="0"/>
	<connection from="-405367638" to="405367638" fromLane="3" toLane="4"/>
	<connection from="-405367638" to="405367638" fromLane="3" toLane="3"/>
	<connection from="-405367638" to="405367638" fromLane="3" toLane="2"/>
	<connection from="-405367638" to="405367638" fromLane="3" toLane="1"/>
	<connection from="-405367638" to="405367638" fromLane="3" toLane="0"/>
	<connection from="405367640" to="405367638" fromLane="2" toLane="4"/>
	<connection from="405367640" to="405367638" fromLane="2" toLane="3"/>
	<connection from="405367640" to="405367638" fromLane="2" toLane="2"/>
	<connection from="405367640" to="405367638" fromLane="2" toLane="1"/>
	<connection from="405367640" to="405367638" fromLane="2" toLane="0"/>
	<connection from="405367640" to="405367638" fromLane="2" toLane="4"/>
	<connection from="405367640" to="405367638" fromLane="2" toLane="3"/>
	<connection from="405367640" to="405367638" fromLane="2" toLane="2"/>
	<connection from="405367640" to="405367638" fromLane="2" toLane="1"/>
	<connection from="405367640" to="405367638" fromLane="2" toLane="0"/>
	<connection from="405367640" to="405367638" fromLane="2" toLane="4"/>
	<connection from="405367640" to="405367638" fromLane="2" toLane="3"/>
	<connection from="405367640" to="405367638" fromLane="2" toLane="2"/>
	<connection from="405367640" to="405367638" fromLane="2" toLane="1"/>
	<connection from="405367640" to="405367638" fromLane="2" toLane="0"/>
	<connection from="405367640" to="405367638" fromLane="1" toLane="4"/>
	<connection from="405367640" to="405367638" fromLane="1" toLane="3"/>
	<connection from="405367640" to="405367638" fromLane="1" toLane="2"/>
	<connection from="405367640" to="405367638" fromLane="1" toLane="1"/>
	<connection from="405367640" to="405367638" fromLane="1" toLane="0"/>
	<connection from="405367640" to="405367638" fromLane="0" toLane="4"/>
	<connection from="405367640" to="405367638" fromLane="0" toLane="3"/>
	<connection from="405367640" to="405367638" fromLane="0" toLane="2"/>
	<connection from="405367640" to="405367638" fromLane="0" toLane="1"/>
	<connection from="405367640" to="405367638" fromLane="0" toLane="0"/>
	<connection from="405367640" to="-405367640" fromLane="2" toLane="2"/>
	<connection from="405367640" to="-405367640" fromLane="2" toLane="1"/>
	<connection from="405367640" to="-405367640" fromLane="2" toLane="0"/>
	<connection from="-405366763" to="-405366770" fromLane="2" toLane="2"/>
	<connection from="-405366763" to="-405366770" fromLane="2" toLane="1"/>
	<connection from="-405366763" to="-405366770" fromLane="2" toLane="0"/>
	<connection from="-405366763" to="-405366770" fromLane="1" toLane="2"/>
	<connection from="-405366763" to="-405366770" fromLane="1" toLane="1"/>
	<connection from="-405366763" to="-405366770" fromLane="1" toLane="0"/>
	<connection from="-405366763" to="-405366770" fromLane="0" toLane="2"/>
	<connection from="-405366763" to="-405366770" fromLane="0" toLane="1"/>
	<connection from="-405366763" to="-405366770" fromLane="0" toLane="0"/>
	<connection from="-405366763" to="405366763" fromLane="2" toLane="3"/>
	<connection from="-405366763" to="405366763" fromLane="2" toLane="2"/>
	<connection from="-405366763" to="405366763" fromLane="2" toLane="1"/>
	<connection from="-405366763" to="405366763" fromLane="2" toLane="0"/>
	<connection from="405366770" to="405366763" fromLane="2" toLane="3"/>
	<connection from="405366770" to="405366763" fromLane="2" toLane="2"/>
	<connection from="405366770" to="405366763" fromLane="2" toLane="1"/>
	<connection from="405366770" to="405366763" fromLane="2" toLane="0"/>
	<connection from="405366770" to="405366763" fromLane="2" toLane="3"/>
	<connection from="405366770" to="405366763" fromLane="2" toLane="2"/>
	<connection from="405366770" to="405366763" fromLane="2" toLane="1"/>
	<connection from="405366770" to="405366763" fromLane="2" toLane="0"/>
	<connection from="405366770" to="405366763" fromLane="1" toLane="3"/>
	<connection from="405366770" to="405366763" fromLane="1" toLane="2"/>
	<connection from="405366770" to="405366763" fromLane="1" toLane="1"/>
	<connection from="405366770" to="405366763" fromLane="1" toLane="0"/>
	<connection from="405366770" to="405366763" fromLane="0" toLane="3"/>
	<connection from="405366770" to="405366763" fromLane="0" toLane="2"/>
	<connection from="405366770" to="405366763" fromLane="0" toLane="1"/>
	<connection from="405366770" to="405366763" fromLane="0" toLane="0"/>
	<connection from="405366770" to="-405366770" fromLane="2" toLane="2"/>
	<connection from="405366770" to="-405366770" fromLane="2" toLane="1"/>
	<connection from="405366770" to="-405366770" fromLane="2" toLane="0"/>
	<connection from="-405367637" to="-405367632" fromLane="2" toLane="2"/>
	<connection from="-405367637" to="-405367632" fromLane="2" toLane="1"/>
	<connection from="-405367637" to="-405367632" fromLane="2" toLane="0"/>
	<connection from="-405367637" to="-405367632" fromLane="1" toLane="2"/>
	<connection from="-405367637" to="-405367632" fromLane="1" toLane="1"/>
	<connection from="-405367637" to="-405367632" fromLane="1" toLane="0"/>
	<connection from="-405367637" to="-405367632" fromLane="0" toLane="2"/>
	<connection from="-405367637" to="-405367632" fromLane="0" toLane="1"/>
	<connection from="-405367637" to="-405367632" fromLane="0" toLane="0"/>
	<connection from="-405367637" to="405367637" fromLane="2" toLane="3"/>
	<connection from="-405367637" to="405367637" fromLane="2" toLane="2"/>
	<connection from="-405367637" to="405367637" fromLane="2" toLane="1"/>
	<connection from="-405367637" to="405367637" fromLane="2" toLane="0"/>
	<connection from="405367632" to="405367637" fromLane="2" toLane="3"/>
	<connection from="405367632" to="405367637" fromLane="2" toLane="2"/>
	<connection from="405367632" to="405367637" fromLane="2" toLane="1"/>
	<connection from="405367632" to="405367637" fromLane="2" toLane="0"/>
	<connection from="405367632" to="405367637" fromLane="2" toLane="3"/>
	<connection from="405367632" to="405367637" fromLane="2" toLane="2"/>
	<connection from="405367632" to="405367637" fromLane="2" toLane="1"/>
	<connection from="405367632" to="405367637" fromLane="2" toLane="0"/>
	<connection from="405367632" to="405367637" fromLane="1" toLane="3"/>
	<connection from="405367632" to="405367637" fromLane="1" toLane="2"/>
	<connection from="405367632" to="405367637" fromLane="1" toLane="1"/>
	<connection from="405367632" to="405367637" fromLane="1" toLane="0"/>
	<connection from="405367632" to="405367637" fromLane="0" toLane="3"/>
	<connection from="405367632" to="405367637" fromLane="0" toLane="2"/>
	<connection from="405367632" to="405367637" fromLane="0" toLane="1"/>
	<connection from="405367632" to="405367637" fromLane="0" toLane="0"/>
	<connection from="405367632" to="-405367632" fromLane="2" toLane="2"/>
	<connection from="405367632" to="-405367632" fromLane="2" toLane="1"/>
	<connection from="405367632" to="-405367632" fromLane="2" toLane="0"/>
	<connection from="508815234" to="482940996#1" fromLane="1" toLane="1"/>
	<connection from="508815234" to="482940996#1" fromLane="1" toLane="0"/>
	<connection from="508815234" to="482940996#1" fromLane="0" toLane="1"/>
	<connection from="508815234" to="482940996#1" fromLane="0" toLane="0"/>
	<connection from="185720528" to="-185720528" fromLane="2" toLane="1"/>
	<connection from="185720528" to="-185720528" fromLane="2" toLane="0"/>
	<connection from="-506148923#1" to="-209921197.0" fromLane="0" toLane="0"/>
	<connection from="-506148923#1" to="-506148923#0" fromLane="0" toLane="0"/>
	<connection from="-506148923#1" to="506148923#1" fromLane="0" toLane="0"/>
	<connection from="209921197.145" to="-506148923#0" fromLane="0" toLane="0"/>
	<connection from="209921197.145" to="506148923#1" fromLane="0" toLane="0"/>
	<connection from="506148923#0" to="506148923#1" fromLane="0" toLane="0"/>
	<connection from="506148923#0" to="-209921197.0" fromLane="0" toLane="0"/>
	<connection from="506148923#0" to="-506148923#0" fromLane="0" toLane="0"/>
	<connection from="-405367632" to="-405367638" fromLane="2" toLane="3"/>
	<connection from="-405367632" to="-405367638" fromLane="2" toLane="2"/>
	<connection from="-405367632" to="-405367638" fromLane="2" toLane="1"/>
	<connection from="-405367632" to="-405367638" fromLane="2" toLane="0"/>
	<connection from="-405367632" to="-405367638" fromLane="2" toLane="3"/>
	<connection from="-405367632" to="-405367638" fromLane="2" toLane="2"/>
	<connection from="-405367632" to="-405367638" fromLane="2" toLane="1"/>
	<connection from="-405367632" to="-405367638" fromLane="2" toLane="0"/>
	<connection from="-405367632" to="-405367638" fromLane="1" toLane="3"/>
	<connection from="-405367632" to="-405367638" fromLane="1" toLane="2"/>
	<connection from="-405367632" to="-405367638" fromLane="1" toLane="1"/>
	<connection from="-405367632" to="-405367638" fromLane="1" toLane="0"/>
	<connection from="-405367632" to="-405367638" fromLane="0" toLane="3"/>
	<connection from="-405367632" to="-405367638" fromLane="0" toLane="2"/>
	<connection from="-405367632" to="-405367638" fromLane="0" toLane="1"/>
	<connection from="-405367632" to="-405367638" fromLane="0" toLane="0"/>
	<connection from="-405367632" to="405367632" fromLane="2" toLane="2"/>
	<connection from="-405367632" to="405367632" fromLane="2" toLane="1"/>
	<connection from="-405367632" to="405367632" fromLane="2" toLane="0"/>
	<connection from="405367638" to="405367632" fromLane="2" toLane="2"/>
	<connection from="405367638" to="405367632" fromLane="2" toLane="1"/>
	<connection from="405367638" to="405367632" fromLane="2" toLane="0"/>
	<connection from="405367638" to="405367632" fromLane="1" toLane="2"/>
	<connection from="405367638" to="405367632" fromLane="1" toLane="1"/>
	<connection from="405367638" to="405367632" fromLane="1" toLane="0"/>
	<connection from="405367638" to="405367632" fromLane="0" toLane="2"/>
	<connection from="405367638" to="405367632" fromLane="0" toLane="1"/>
	<connection from="405367638" to="405367632" fromLane="0" toLane="0"/>
	<connection from="405367638" to="-405367638" fromLane="4" toLane="3"/>
	<connection from="405367638" to="-405367638" fromLane="4" toLane="2"/>
	<connection from="405367638" to="-405367638" fromLane="4" toLane="1"/>
	<connection from="405367638" to="-405367638" fromLane="4" toLane="0"/>
	<connection from="-405367634" to="-405367637" fromLane="2" toLane="2"/>
	<connection from="-405367634" to="-405367637" fromLane="2" toLane="1"/>
	<connection from="-405367634" to="-405367637" fromLane="2" toLane="0"/>
	<connection from="-405367634" to="-405367637" fromLane="1" toLane="2"/>
	<connection from="-405367634" to="-405367637" fromLane="1" toLane="1"/>
	<connection from="-405367634" to="-405367637" fromLane="1" toLane="0"/>
	<connection from="-405367634" to="-405367637" fromLane="0" toLane="2"/>
	<connection from="-405367634" to="-405367637" fromLane="0" toLane="1"/>
	<connection from="-405367634" to="-405367637" fromLane="0" toLane="0"/>
	<connection from="-405367634" to="405367634" fromLane="2" toLane="4"/>
	<connection from="-405367634" to="405367634" fromLane="2" toLane="3"/>
	<connection from="-405367634" to="405367634" fromLane="2" toLane="2"/>
	<connection from="-405367634" to="405367634" fromLane="2" toLane="1"/>
	<connection from="-405367634" to="405367634" fromLane="2" toLane="0"/>
	<connection from="405367637" to="405367634" fromLane="3" toLane="4"/>
	<connection from="405367637" to="405367634" fromLane="3" toLane="3"/>
	<connection from="405367637" to="405367634" fromLane="3" toLane="2"/>
	<connection from="405367637" to="405367634" fromLane="3" toLane="1"/>
	<connection from="405367637" to="405367634" fromLane="3" toLane="0"/>
	<connection from="405367637" to="405367634" fromLane="3" toLane="4"/>
	<connection from="405367637" to="405367634" fromLane="3" toLane="3"/>
	<connection from="405367637" to="405367634" fromLane="3" toLane="2"/>
	<connection from="405367637" to="405367634" fromLane="3" toLane="1"/>
	<connection from="405367637" to="405367634" fromLane="3" toLane="0"/>
	<connection from="405367637" to="405367634" fromLane="2" toLane="4"/>
	<connection from="405367637" to="405367634" fromLane="2" toLane="3"/>
	<connection from="405367637" to="405367634" fromLane="2" toLane="2"/>
	<connection from="405367637" to="405367634" fromLane="2" toLane="1"/>
	<connection from="405367637" to="405367634" fromLane="2" toLane="0"/>
	<connection from="405367637" to="405367634" fromLane="1" toLane="4"/>
	<connection from="405367637" to="405367634" fromLane="1" toLane="3"/>
	<connection from="405367637" to="405367634" fromLane="1" toLane="2"/>
	<connection from="405367637" to="405367634" fromLane="1" toLane="1"/>
	<connection from="405367637" to="405367634" fromLane="1" toLane="0"/>
	<connection from="405367637" to="405367634" fromLane="0" toLane="4"/>
	<connection from="405367637" to="405367634" fromLane="0" toLane="3"/>
	<connection from="405367637" to="405367634" fromLane="0" toLane="2"/>
	<connection from="405367637" to="405367634" fromLane="0" toLane="1"/>
	<connection from="405367637" to="405367634" fromLane="0" toLane="0"/>
	<connection from="405367637" to="-405367637" fromLane="3" toLane="2"/>
	<connection from="405367637" to="-405367637" fromLane="3" toLane="1"/>
	<connection from="405367637" to="-405367637" fromLane="3" toLane="0"/>
	<connection from="-185720528" to="-405366768" fromLane="1" toLane="3"/>
	<connection from="-185720528" to="-405366768" fromLane="1" toLane="2"/>
	<connection from="-185720528" to="-405366768" fromLane="1" toLane="1"/>
	<connection from="-185720528" to="-405366768" fromLane="1" toLane="0"/>
	<connection from="-185720528" to="-405366768" fromLane="0" toLane="3"/>
	<connection from="-185720528" to="-405366768" fromLane="0" toLane="2"/>
	<connection from="-185720528" to="-405366768" fromLane="0" toLane="1"/>
	<connection from="-185720528" to="-405366768" fromLane="0" toLane="0"/>
	<connection from="-185720528" to="185720528" fromLane="1" toLane="2"/>
	<connection from="-185720528" to="185720528" fromLane="1" toLane="1"/>
	<connection from="-185720528" to="185720528" fromLane="1" toLane="0"/>
	<connection from="405366768" to="185720528" fromLane="2" toLane="2"/>
	<connection from="405366768" to="185720528" fromLane="2" toLane="1"/>
	<connection from="405366768" to="185720528" fromLane="2" toLane="0"/>
	<connection from="405366768" to="185720528" fromLane="1" toLane="2"/>
	<connection from="405366768" to="185720528" fromLane="1" toLane="1"/>
	<connection from="405366768" to="185720528" fromLane="1" toLane="0"/>
	<connection from="405366768" to="185720528" fromLane="0" toLane="2"/>
	<connection from="405366768" to="185720528" fromLane="0" toLane="1"/>
	<connection from="405366768" to="185720528" fromLane="0" toLane="0"/>
	<connection from="468917797.108" to="-405366768" fromLane="1" toLane="3"/>
	<connection from="468917797.108" to="-405366768" fromLane="1" toLane="2"/>
	<connection from="468917797.108" to="-405366768" fromLane="1" toLane="1"/>
	<connection from="468917797.108" to="-405366768" fromLane="1" toLane="0"/>
	<connection from="468917797.108" to="-405366768" fromLane="1" toLane="3"/>
	<connection from="468917797.108" to="-405366768" fromLane="1" toLane="2"/>
	<connection from="468917797.108" to="-405366768" fromLane="1" toLane="1"/>
	<connection from="468917797.108" to="-405366768" fromLane="1" toLane="0"/>
	<connection from="468917797.108" to="-405366768" fromLane="0" toLane="3"/>
	<connection from="468917797.108" to="-405366768" fromLane="0" toLane="2"/>
	<connection from="468917797.108" to="-405366768" fromLane="0" toLane="1"/>
	<connection from="468917797.108" to="-405366768" fromLane="0" toLane="0"/>
	<connection from="468917797.108" to="185720528" fromLane="2" toLane="2"/>
	<connection from="468917797.108" to="185720528" fromLane="2" toLane="1"/>
	<connection from="468917797.108" to="185720528" fromLane="2" toLane="0"/>
	<connection from="468917797.108" to="185720528" fromLane="2" toLane="2"/>
	<connection from="468917797.108" to="185720528" fromLane="2" toLane="1"/>
	<connection from="468917797.108" to="185720528" fromLane="2" toLane="0"/>
	<connection from="-518178745" to="-405366766" fromLane="2" toLane="2"/>
	<connection from="-518178745" to="-405366766" fromLane="2" toLane="1"/>
	<connection from="-518178745" to="-405366766" fromLane="2" toLane="0"/>
	<connection from="-518178745" to="-405366766" fromLane="1" toLane="2"/>
	<connection from="-518178745" to="-405366766" fromLane="1" toLane="1"/>
	<connection from="-518178745" to="-405366766" fromLane="1" toLane="0"/>
	<connection from="-518178745" to="-405366766" fromLane="0" toLane="2"/>
	<connection from="-518178745" to="-405366766" fromLane="0" toLane="1"/>
	<connection from="-518178745" to="-405366766" fromLane="0" toLane="0"/>
	<connection from="-518178745" to="518178745" fromLane="2" toLane="4"/>
	<connection from="-518178745" to="518178745" fromLane="2" toLane="3"/>
	<connection from="-518178745" to="518178745" fromLane="2" toLane="2"/>
	<connection from="-518178745" to="518178745" fromLane="2" toLane="1"/>
	<connection from="-518178745" to="518178745" fromLane="2" toLane="0"/>
	<connection from="405366766" to="518178745" fromLane="4" toLane="4"/>
	<connection from="405366766" to="518178745" fromLane="4" toLane="3"/>
	<connection from="405366766" to="518178745" fromLane="4" toLane="2"/>
	<connection from="405366766" to="518178745" fromLane="4" toLane="1"/>
	<connection from="405366766" to="518178745" fromLane="4" toLane="0"/>
	<connection from="405366766" to="518178745" fromLane="3" toLane="4"/>
	<connection from="405366766" to="518178745" fromLane="3" toLane="3"/>
	<connection from="405366766" to="518178745" fromLane="3" toLane="2"/>
	<connection from="405366766" to="518178745" fromLane="3" toLane="1"/>
	<connection from="405366766" to="518178745" fromLane="3" toLane="0"/>
	<connection from="405366766" to="518178745" fromLane="2" toLane="4"/>
	<connection from="405366766" to="518178745" fromLane="2" toLane="3"/>
	<connection from="405366766" to="518178745" fromLane="2" toLane="2"/>
	<connection from="405366766" to="518178745" fromLane="2" toLane="1"/>
	<connection from="405366766" to="518178745" fromLane="2" toLane="0"/>
	<connection from="405366766" to="518178745" fromLane="1" toLane="4"/>
	<connection from="405366766" to="518178745" fromLane="1" toLane="3"/>
	<connection from="405366766" to="518178745" fromLane="1" toLane="2"/>
	<connection from="405366766" to="518178745" fromLane="1" toLane="1"/>
	<connection from="405366766" to="518178745" fromLane="1" toLane="0"/>
	<connection from="405366766" to="518178745" fromLane="0" toLane="4"/>
	<connection from="405366766" to="518178745" fromLane="0" toLane="3"/>
	<connection from="405366766" to="518178745" fromLane="0" toLane="2"/>
	<connection from="405366766" to="518178745" fromLane="0" toLane="1"/>
	<connection from="405366766" to="518178745" fromLane="0" toLane="0"/>
	<connection from="405366766" to="-405366766" fromLane="4" toLane="2"/>
	<connection from="405366766" to="-405366766" fromLane="4" toLane="1"/>
	<connection from="405366766" to="-405366766" fromLane="4" toLane="0"/>
	<connection from="-313036847" to="313036847" fromLane="1" toLane="1"/>
	<connection from="-313036847" to="313036847" fromLane="1" toLane="0"/>
	<connection from="-518178646" to="-518178745" fromLane="2" toLane="2"/>
	<connection from="-518178646" to="-518178745" fromLane="2" toLane="1"/>
	<connection from="-518178646" to="-518178745" fromLane="2" toLane="0"/>
	<connection from="-518178646" to="-518178745" fromLane="1" toLane="2"/>
	<connection from="-518178646" to="-518178745" fromLane="1" toLane="1"/>
	<connection from="-518178646" to="-518178745" fromLane="1" toLane="0"/>
	<connection from="-518178646" to="-518178745" fromLane="0" toLane="2"/>
	<connection from="-518178646" to="-518178745" fromLane="0" toLane="1"/>
	<connection from="-518178646" to="-518178745" fromLane="0" toLane="0"/>
	<connection from="-518178646" to="518178646" fromLane="2" toLane="4"/>
	<connection from="-518178646" to="518178646" fromLane="2" toLane="3"/>
	<connection from="-518178646" to="518178646" fromLane="2" toLane="2"/>
	<connection from="-518178646" to="518178646" fromLane="2" toLane="1"/>
	<connection from="-518178646" to="518178646" fromLane="2" toLane="0"/>
	<connection from="518178745" to="518178646" fromLane="4" toLane="4"/>
	<connection from="518178745" to="518178646" fromLane="4" toLane="3"/>
	<connection from="518178745" to="518178646" fromLane="4" toLane="2"/>
	<connection from="518178745" to="518178646" fromLane="4" toLane="1"/>
	<connection from="518178745" to="518178646" fromLane="4" toLane="0"/>
	<connection from="518178745" to="518178646" fromLane="3" toLane="4"/>
	<connection from="518178745" to="518178646" fromLane="3" toLane="3"/>
	<connection from="518178745" to="518178646" fromLane="3" toLane="2"/>
	<connection from="518178745" to="518178646" fromLane="3" toLane="1"/>
	<connection from="518178745" to="518178646" fromLane="3" toLane="0"/>
	<connection from="518178745" to="518178646" fromLane="2" toLane="4"/>
	<connection from="518178745" to="518178646" fromLane="2" toLane="3"/>
	<connection from="518178745" to="518178646" fromLane="2" toLane="2"/>
	<connection from="518178745" to="518178646" fromLane="2" toLane="1"/>
	<connection from="518178745" to="518178646" fromLane="2" toLane="0"/>
	<connection from="518178745" to="518178646" fromLane="1" toLane="4"/>
	<connection from="518178745" to="518178646" fromLane="1" toLane="3"/>
	<connection from="518178745" to="518178646" fromLane="1" toLane="2"/>
	<connection from="518178745" to="518178646" fromLane="1" toLane="1"/>
	<connection from="518178745" to="518178646" fromLane="1" toLane="0"/>
	<connection from="518178745" to="518178646" fromLane="0" toLane="4"/>
	<connection from="518178745" to="518178646" fromLane="0" toLane="3"/>
	<connection from="518178745" to="518178646" fromLane="0" toLane="2"/>
	<connection from="518178745" to="518178646" fromLane="0" toLane="1"/>
	<connection from="518178745" to="518178646" fromLane="0" toLane="0"/>
	<connection from="518178745" to="-518178745" fromLane="4" toLane="2"/>
	<connection from="518178745" to="-518178745" fromLane="4" toLane="1"/>
	<connection from="518178745" to="-518178745" fromLane="4" toLane="0"/>
	<connection from="-405367639" to="-13400999" fromLane="0" toLane="0"/>
	<connection from="-405367639" to="-182456135" fromLane="3" toLane="3"/>
	<connection from="-405367639" to="-182456135" fromLane="3" toLane="2"/>
	<connection from="-405367639" to="-182456135" fromLane="3" toLane="1"/>
	<connection from="-405367639" to="-182456135" fromLane="3" toLane="0"/>
	<connection from="-405367639" to="-182456135" fromLane="2" toLane="3"/>
	<connection from="-405367639" to="-182456135" fromLane="2" toLane="2"/>
	<connection from="-405367639" to="-182456135" fromLane="2" toLane="1"/>
	<connection from="-405367639" to="-182456135" fromLane="2" toLane="0"/>
	<connection from="-405367639" to="-182456135" fromLane="1" toLane="3"/>
	<connection from="-405367639" to="-182456135" fromLane="1" toLane="2"/>
	<connection from="-405367639" to="-182456135" fromLane="1" toLane="1"/>
	<connection from="-405367639" to="-182456135" fromLane="1" toLane="0"/>
	<connection from="-405367639" to="-182456135" fromLane="0" toLane="3"/>
	<connection from="-405367639" to="-182456135" fromLane="0" toLane="2"/>
	<connection from="-405367639" to="-182456135" fromLane="0" toLane="1"/>
	<connection from="-405367639" to="-182456135" fromLane="0" toLane="0"/>
	<connection from="-405367639" to="506148923#0" fromLane="4" toLane="0"/>
	<connection from="-405367639" to="405367639" fromLane="4" toLane="3"/>
	<connection from="-405367639" to="405367639" fromLane="4" toLane="2"/>
	<connection from="-405367639" to="405367639" fromLane="4" toLane="1"/>
	<connection from="-405367639" to="405367639" fromLane="4" toLane="0"/>
	<connection from="-506148923#0" to="405367639" fromLane="0" toLane="3"/>
	<connection from="-506148923#0" to="405367639" fromLane="0" toLane="2"/>
	<connection from="-506148923#0" to="405367639" fromLane="0" toLane="1"/>
	<connection from="-506148923#0" to="405367639" fromLane="0" toLane="0"/>
	<connection from="-506148923#0" to="-13400999" fromLane="0" toLane="0"/>
	<connection from="-506148923#0" to="-182456135" fromLane="0" toLane="3"/>
	<connection from="-506148923#0" to="-182456135" fromLane="0" toLane="2"/>
	<connection from="-506148923#0" to="-182456135" fromLane="0" toLane="1"/>
	<connection from="-506148923#0" to="-182456135" fromLane="0" toLane="0"/>
	<connection from="-506148923#0" to="506148923#0" fromLane="0" toLane="0"/>
	<connection from="13400999" to="-182456135" fromLane="0" toLane="3"/>
	<connection from="13400999" to="-182456135" fromLane="0" toLane="2"/>
	<connection from="13400999" to="-182456135" fromLane="0" toLane="1"/>
	<connection from="13400999" to="-182456135" fromLane="0" toLane="0"/>
	<connection from="13400999" to="506148923#0" fromLane="0" toLane="0"/>
	<connection from="13400999" to="405367639" fromLane="0" toLane="3"/>
	<connection from="13400999" to="405367639" fromLane="0" toLane="2"/>
	<connection from="13400999" to="405367639" fromLane="0" toLane="1"/>
	<connection from="13400999" to="405367639" fromLane="0" toLane="0"/>
	<connection from="13400999" to="-13400999" fromLane="0" toLane="0"/>