<?xml version="1.0" encoding="UTF-8"?>

<!-- generated on 2026-06-03T16:05:25.423870+07:00 by Eclipse SUMO netconvert 1.26.0
<netconvertConfiguration xmlns:xsi="http://www.w3.org/2001/XMLSchema-instance" xsi:noNamespaceSchemaLocation="http://sumo.dlr.de/xsd/netconvertConfiguration.xsd">

    <input>
        <node-files value="C:\Users\m6722\Research\LLMTSC_SUMO\dataset\sumo_version\LA_1x4\roadnet.nod.xml"/>
        <edge-files value="C:\Users\m6722\Research\LLMTSC_SUMO\dataset\sumo_version\LA_1x4\roadnet.edg.xml"/>
        <connection-files value="C:\Users\m6722\Research\LLMTSC_SUMO\dataset\sumo_version\LA_1x4\roadnet.con.xml"/>
        <tllogic-files value="C:\Users\m6722\Research\LLMTSC_SUMO\dataset\sumo_version\LA_1x4\roadnet.tll.xml"/>
    </input>

    <output>
        <output-file value="C:\Users\m6722\Research\LLMTSC_SUMO\dataset\sumo_version\LA_1x4\roadnet.net.xml"/>
    </output>

</netconvertConfiguration>
-->

<net version="1.20" junctionCornerDetail="5" limitTurnSpeed="5.50" xmlns:xsi="http://www.w3.org/2001/XMLSchema-instance" xsi:noNamespaceSchemaLocation="http://sumo.dlr.de/xsd/net_file.xsd">

    <location netOffset="-210.25,-105.64" convBoundary="0.00,0.00,296.07,541.08" origBoundary="210.25,105.64,506.32,646.72" projParameter="!"/>

    <edge id=":2200742478_0" function="internal">
        <lane id=":2200742478_0_0" index="0" speed="3.65" length="4.67" shape="128.35,394.51 126.92,394.35 126.20,393.82 126.19,392.92 126.89,391.67"/>
    </edge>
    <edge id=":2200742494_0" function="internal">
        <lane id=":2200742494_0_0" index="0" speed="8.33" length="15.53" shape="199.31,372.94 196.41,368.00 193.63,364.83 190.97,363.44 188.42,363.83"/>
    </edge>
    <edge id=":2200742494_1" function="internal">
        <lane id=":2200742494_1_0" index="0" speed="11.11" length="23.38" shape="199.31,372.94 197.20,366.59 197.21,361.76 197.28,356.90 195.31,350.48"/>
        <lane id=":2200742494_1_1" index="1" speed="11.11" length="23.38" shape="199.31,372.94 197.58,366.24 198.66,361.07 199.78,355.88 198.19,349.10"/>
        <lane id=":2200742494_1_2" index="2" speed="11.11" length="23.38" shape="199.31,372.94 197.94,365.85 200.09,360.38 202.30,354.90 201.08,347.73"/>
        <lane id=":2200742494_1_3" index="3" speed="11.11" length="23.38" shape="202.16,371.50 199.65,365.46 198.65,361.03 197.68,356.59 195.31,350.48"/>
        <lane id=":2200742494_1_4" index="4" speed="11.11" length="23.38" shape="202.16,371.50 200.06,365.16 200.09,360.35 200.16,355.51 198.19,349.10"/>
        <lane id=":2200742494_1_5" index="5" speed="11.11" length="23.38" shape="202.16,371.50 200.45,364.82 201.53,359.66 202.66,354.48 201.08,347.73"/>
        <lane id=":2200742494_1_6" index="6" speed="11.11" length="23.38" shape="205.02,370.06 195.31,350.48"/>
        <lane id=":2200742494_1_7" index="7" speed="11.11" length="23.38" shape="205.02,370.06 202.52,364.03 201.52,359.62 200.56,355.19 198.19,349.10"/>
        <lane id=":2200742494_1_8" index="8" speed="11.11" length="23.38" shape="205.02,370.06 202.93,363.74 202.96,358.94 203.04,354.11 201.08,347.73"/>
    </edge>
    <edge id=":2200742494_10" function="internal">
        <lane id=":2200742494_10_0" index="0" speed="10.68" length="33.65" shape="207.87,368.61 205.41,359.78 207.68,353.24 214.01,348.95 223.71,346.88"/>
        <lane id=":2200742494_10_1" index="1" speed="10.22" length="30.74" shape="207.87,368.61 205.88,360.74 208.52,355.22 214.87,351.76 223.99,350.07"/>
    </edge>
    <edge id=":2200742494_12" function="internal">
        <lane id=":2200742494_12_0" index="0" speed="6.20" length="10.47" shape="224.55,356.44 221.17,357.11 219.17,358.40 218.55,360.31 219.30,362.84"/>
        <lane id=":2200742494_12_1" index="1" speed="7.07" length="14.00" shape="224.55,356.44 219.71,357.31 216.74,358.91 215.65,361.23 216.44,364.28"/>
        <lane id=":2200742494_12_2" index="2" speed="7.85" length="17.57" shape="224.55,356.44 218.24,357.52 214.31,359.42 212.76,362.16 213.58,365.72"/>
    </edge>
    <edge id=":2200742494_15" function="internal">
        <lane id=":2200742494_15_0" index="0" speed="11.11" length="36.95" shape="224.55,356.44 215.33,357.65 204.42,359.61 194.54,361.84 188.42,363.83"/>
    </edge>
    <edge id=":2200742494_16" function="internal">
        <lane id=":2200742494_16_0" index="0" speed="11.11" length="29.34" shape="224.27,353.26 216.16,353.48 206.88,353.04 199.06,352.01 195.31,350.48"/>
        <lane id=":2200742494_16_1" index="1" speed="11.11" length="27.35" shape="224.27,353.26 213.97,353.76 206.19,353.24 200.93,351.68 198.19,349.10"/>
        <lane id=":2200742494_16_2" index="2" speed="11.11" length="24.99" shape="224.27,353.26 215.42,353.56 208.61,352.74 203.83,350.80 201.08,347.73"/>
    </edge>
    <edge id=":2200742494_19" function="internal">
        <lane id=":2200742494_19_0" index="0" speed="4.72" length="7.01" shape="224.27,353.26 221.74,351.87 220.80,350.35 221.46,348.68 223.71,346.88"/>
        <lane id=":2200742494_19_1" index="1" speed="3.65" length="7.01" shape="224.27,353.26 223.00,352.56 222.53,351.80 222.86,350.97 223.99,350.07"/>
    </edge>
    <edge id=":2200742494_21" function="internal">
        <lane id=":2200742494_21_0" index="0" speed="8.19" length="10.85" shape="215.53,340.85 217.20,343.65 219.12,345.60 221.29,346.67 223.71,346.88"/>
        <lane id=":2200742494_21_1" index="1" speed="8.94" length="13.07" shape="215.53,340.85 217.77,345.01 219.92,347.93 222.00,349.62 223.99,350.07"/>
    </edge>
    <edge id=":2200742494_23" function="internal">
        <lane id=":2200742494_23_0" index="0" speed="11.11" length="23.02" shape="215.53,340.85 217.43,347.13 217.32,351.89 217.26,356.62 219.30,362.84"/>
        <lane id=":2200742494_23_1" index="1" speed="11.11" length="23.02" shape="215.53,340.85 217.05,347.50 215.89,352.61 214.77,357.69 216.44,364.28"/>
        <lane id=":2200742494_23_2" index="2" speed="11.11" length="23.02" shape="215.53,340.85 216.70,347.92 214.46,353.33 212.27,358.72 213.58,365.72"/>
        <lane id=":2200742494_23_3" index="3" speed="11.11" length="23.02" shape="212.64,342.22 214.96,348.21 215.88,352.57 216.85,356.91 219.30,362.84"/>
        <lane id=":2200742494_23_4" index="4" speed="11.11" length="23.02" shape="212.64,342.22 214.55,348.53 214.45,353.30 214.39,358.04 216.44,364.28"/>
        <lane id=":2200742494_23_5" index="5" speed="11.11" length="23.02" shape="212.64,342.22 214.17,348.90 213.02,354.02 211.91,359.12 213.58,365.72"/>
        <lane id=":2200742494_23_6" index="6" speed="11.11" length="23.02" shape="209.75,343.60 219.30,362.84"/>
        <lane id=":2200742494_23_7" index="7" speed="11.11" length="23.02" shape="209.75,343.60 212.08,349.61 213.01,353.98 213.98,358.34 216.44,364.28"/>
        <lane id=":2200742494_23_8" index="8" speed="11.11" length="23.02" shape="209.75,343.60 211.67,349.92 211.58,354.71 211.53,359.47 213.58,365.72"/>
    </edge>
    <edge id=":2200742494_32" function="internal">
        <lane id=":2200742494_32_0" index="0" speed="11.11" length="28.23" shape="206.86,344.98 207.06,349.00 204.06,353.48 197.84,358.43 188.42,363.83"/>
    </edge>
    <edge id=":2200742494_33" function="internal">
        <lane id=":2200742494_33_0" index="0" speed="5.58" length="9.35" shape="203.97,346.35 203.35,350.63 201.70,352.75 199.02,352.70 195.31,350.48"/>
        <lane id=":2200742494_33_1" index="1" speed="4.72" length="9.35" shape="203.97,346.35 203.56,349.21 202.46,350.62 200.67,350.58 198.19,349.10"/>
        <lane id=":2200742494_33_2" index="2" speed="3.65" length="9.35" shape="203.97,346.35 203.77,347.78 203.22,348.48 202.32,348.47 201.08,347.73"/>
    </edge>
    <edge id=":2200742494_36" function="internal">
        <lane id=":2200742494_36_0" index="0" speed="8.21" length="14.68" shape="186.96,360.98 191.51,358.27 194.41,355.61 195.68,353.02 195.31,350.48"/>
        <lane id=":2200742494_36_1" index="1" speed="8.93" length="17.57" shape="186.96,360.98 192.76,357.63 196.56,354.54 198.37,351.70 198.19,349.10"/>
        <lane id=":2200742494_36_2" index="2" speed="9.62" length="20.51" shape="186.96,360.98 194.01,357.00 198.71,353.47 201.07,350.38 201.08,347.73"/>
    </edge>
    <edge id=":2200742494_39" function="internal">
        <lane id=":2200742494_39_0" index="0" speed="11.11" length="39.09" shape="186.96,360.98 193.18,357.94 203.27,353.41 214.39,349.13 223.71,346.88"/>
        <lane id=":2200742494_39_1" index="1" speed="11.11" length="39.09" shape="186.96,360.98 193.22,358.44 203.41,355.00 214.63,351.82 223.99,350.07"/>
    </edge>
    <edge id=":2200742494_41" function="internal">
        <lane id=":2200742494_41_0" index="0" speed="11.11" length="33.77" shape="186.96,360.98 194.92,358.72 204.96,358.14 214.07,359.44 219.30,362.84"/>
        <lane id=":2200742494_41_1" index="1" speed="11.11" length="33.44" shape="186.96,360.98 197.09,356.95 205.38,356.16 211.83,358.60 216.44,364.28"/>
        <lane id=":2200742494_41_2" index="2" speed="11.11" length="30.69" shape="186.96,360.98 195.84,357.59 203.24,357.25 209.16,359.96 213.58,365.72"/>
    </edge>
    <edge id=":2200742494_44" function="internal">
        <lane id=":2200742494_44_0" index="0" speed="3.65" length="4.67" shape="186.96,360.98 188.39,361.15 189.11,361.68 189.12,362.57 188.42,363.83"/>
    </edge>
    <edge id=":2302151437_0" function="internal">
        <lane id=":2302151437_0_0" index="0" speed="3.65" length="4.67" shape="296.04,492.51 297.25,493.29 297.67,494.08 297.29,494.89 296.10,495.71"/>
    </edge>
    <edge id=":2358086434_0" function="internal">
        <lane id=":2358086434_0_0" index="0" speed="7.00" length="14.02" shape="223.57,541.49 218.17,546.27 213.79,547.18 210.43,544.22 208.10,537.40"/>
        <lane id=":2358086434_0_1" index="1" speed="6.33" length="14.02" shape="223.57,541.49 219.25,545.31 215.74,546.04 213.06,543.68 211.19,538.22"/>
        <lane id=":2358086434_0_2" index="2" speed="5.58" length="14.02" shape="223.57,541.49 220.33,544.36 217.70,544.90 215.69,543.13 214.29,539.04"/>
        <lane id=":2358086434_0_3" index="3" speed="4.72" length="14.02" shape="223.57,541.49 221.41,543.40 219.66,543.77 218.31,542.58 217.38,539.85"/>
        <lane id=":2358086434_0_4" index="4" speed="3.65" length="14.02" shape="223.57,541.49 222.49,542.44 221.61,542.63 220.94,542.04 220.47,540.67"/>
    </edge>
    <edge id=":2358086440_0" function="internal">
        <lane id=":2358086440_0_0" index="0" speed="11.11" length="9.56" shape="226.26,439.54 225.19,437.33 222.96,436.58 220.64,435.83 219.32,433.64"/>
        <lane id=":2358086440_0_1" index="1" speed="11.11" length="9.56" shape="226.26,439.54 225.68,437.51 224.51,436.36 223.27,435.21 222.49,433.20"/>
        <lane id=":2358086440_0_2" index="2" speed="11.11" length="9.56" shape="226.26,439.54 226.18,437.52 226.08,436.14 225.93,434.76 225.66,432.76"/>
        <lane id=":2358086440_0_3" index="3" speed="11.11" length="9.56" shape="226.26,439.54 226.67,437.33 227.68,435.92 228.63,434.51 228.83,432.32"/>
        <lane id=":2358086440_0_4" index="4" speed="11.11" length="9.56" shape="226.26,439.54 227.17,436.99 229.30,435.69 231.35,434.40 232.00,431.88"/>
        <lane id=":2358086440_0_5" index="5" speed="11.11" length="9.56" shape="229.46,439.41 227.89,436.86 224.60,436.51 221.21,436.16 219.32,433.64"/>
        <lane id=":2358086440_0_6" index="6" speed="11.11" length="9.56" shape="229.46,439.41 228.38,437.12 226.14,436.29 223.82,435.47 222.49,433.20"/>
        <lane id=":2358086440_0_7" index="7" speed="11.11" length="9.56" shape="229.46,439.41 228.87,437.29 227.70,436.07 226.45,434.86 225.66,432.76"/>
        <lane id=":2358086440_0_8" index="8" speed="11.11" length="9.56" shape="229.46,439.41 229.37,437.30 229.27,435.85 229.11,434.41 228.83,432.32"/>
        <lane id=":2358086440_0_9" index="9" speed="11.11" length="9.56" shape="229.46,439.41 229.86,437.11 230.87,435.63 231.81,434.16 232.00,431.88"/>
        <lane id=":2358086440_0_10" index="10" speed="11.11" length="9.56" shape="232.66,439.28 230.59,436.36 226.25,436.44 221.78,436.53 219.32,433.64"/>
        <lane id=":2358086440_0_11" index="11" speed="11.11" length="9.56" shape="232.66,439.28 231.08,436.66 227.79,436.22 224.39,435.79 222.49,433.20"/>
        <lane id=":2358086440_0_12" index="12" speed="11.11" length="9.56" shape="232.66,439.28 231.57,436.91 229.33,436.00 227.00,435.10 225.66,432.76"/>
        <lane id=":2358086440_0_13" index="13" speed="11.11" length="9.56" shape="232.66,439.28 232.07,437.07 230.89,435.79 229.63,434.51 228.83,432.32"/>
        <lane id=":2358086440_0_14" index="14" speed="11.11" length="9.56" shape="232.66,439.28 232.56,437.07 232.46,435.57 232.29,434.06 232.00,431.88"/>
    </edge>
    <edge id=":2358086440_15" function="internal">
        <lane id=":2358086440_15_0" index="0" speed="5.58" length="1.72" shape="232.66,439.28 233.62,437.69"/>
        <lane id=":2358086440_15_1" index="1" speed="4.72" length="1.72" shape="232.66,439.28 233.62,437.69"/>
        <lane id=":2358086440_15_2" index="2" speed="3.65" length="1.72" shape="232.66,439.28 233.41,438.05"/>
    </edge>
    <edge id=":2358086440_32" function="internal">
        <lane id=":2358086440_32_0" index="0" speed="5.58" length="12.16" shape="233.62,437.69 234.91,435.59 237.26,434.29 239.71,435.39 242.25,438.89"/>
        <lane id=":2358086440_32_1" index="0" speed="4.72" length="7.49" shape="233.62,437.69 234.16,436.82 235.72,435.95 237.36,436.69 239.05,439.02"/>
        <lane id=":2358086440_32_2" index="0" speed="3.65" length="3.23" shape="233.41,438.05 234.19,437.62 235.01,437.98 235.85,439.15"/>
    </edge>
    <edge id=":2358086440_18" function="internal">
        <lane id=":2358086440_18_0" index="0" speed="11.11" length="9.81" shape="244.67,430.11 244.53,432.75 243.63,434.49 242.64,436.23 242.25,438.89"/>
        <lane id=":2358086440_18_1" index="1" speed="11.11" length="9.81" shape="244.67,430.11 244.07,432.96 242.06,434.55 239.94,436.14 239.05,439.02"/>
        <lane id=":2358086440_18_2" index="2" speed="11.11" length="9.81" shape="244.67,430.11 243.63,433.27 240.49,434.61 237.25,435.96 235.85,439.15"/>
        <lane id=":2358086440_18_3" index="3" speed="11.11" length="9.81" shape="241.50,430.55 241.84,433.02 242.03,434.71 242.14,436.41 242.25,438.89"/>
        <lane id=":2358086440_18_4" index="4" speed="11.11" length="9.81" shape="241.50,430.55 241.35,433.10 240.44,434.77 239.45,436.45 239.05,439.02"/>
        <lane id=":2358086440_18_5" index="5" speed="11.11" length="9.81" shape="241.50,430.55 240.89,433.32 238.87,434.83 236.75,436.36 235.85,439.15"/>
        <lane id=":2358086440_18_6" index="6" speed="11.11" length="9.81" shape="238.34,430.99 239.18,433.45 240.45,434.93 241.65,436.41 242.25,438.89"/>
        <lane id=":2358086440_18_7" index="7" speed="11.11" length="9.81" shape="238.34,430.99 238.66,433.37 238.84,434.99 238.95,436.63 239.05,439.02"/>
        <lane id=":2358086440_18_8" index="8" speed="11.11" length="9.81" shape="238.34,430.99 238.17,433.45 237.25,435.06 236.25,436.67 235.85,439.15"/>
    </edge>
    <edge id=":2358086440_27" function="internal">
        <lane id=":2358086440_27_0" index="0" speed="7.00" length="1.52" shape="235.17,431.43 234.50,432.82"/>
        <lane id=":2358086440_27_1" index="1" speed="6.33" length="1.52" shape="235.17,431.43 234.50,432.82"/>
        <lane id=":2358086440_27_2" index="2" speed="5.58" length="1.52" shape="235.17,431.43 234.50,432.82"/>
        <lane id=":2358086440_27_3" index="3" speed="4.72" length="1.52" shape="235.17,431.43 234.50,432.82"/>
        <lane id=":2358086440_27_4" index="4" speed="3.65" length="1.52" shape="235.17,431.43 234.54,432.73"/>
    </edge>
    <edge id=":2358086440_33" function="internal">
        <lane id=":2358086440_33_0" index="0" speed="7.00" length="21.83" shape="234.50,432.82 232.03,437.93 228.35,440.46 224.11,439.03 219.32,433.64"/>
        <lane id=":2358086440_33_1" index="0" speed="6.33" length="17.15" shape="234.50,432.82 232.66,436.63 229.71,438.66 226.32,437.51 222.49,433.20"/>
        <lane id=":2358086440_33_2" index="0" speed="5.58" length="12.48" shape="234.50,432.82 233.29,435.33 231.07,436.85 228.53,435.99 225.66,432.76"/>
        <lane id=":2358086440_33_3" index="0" speed="4.72" length="7.81" shape="234.50,432.82 233.91,434.03 232.44,435.05 230.74,434.47 228.83,432.32"/>
        <lane id=":2358086440_33_4" index="0" speed="3.65" length="3.23" shape="234.54,432.73 233.80,433.24 232.95,432.95 232.00,431.88"/>
    </edge>
    <edge id=":2358086443_0" function="internal">
        <lane id=":2358086443_0_0" index="0" speed="11.11" length="9.02" shape="167.99,291.48 166.70,289.64 165.17,288.84 163.59,288.06 162.16,286.28"/>
        <lane id=":2358086443_0_1" index="1" speed="11.11" length="9.02" shape="167.99,291.48 165.03,284.87"/>
        <lane id=":2358086443_0_2" index="2" speed="11.11" length="9.02" shape="167.99,291.48 167.59,289.17 168.04,287.43 168.45,285.71 167.90,283.46"/>
        <lane id=":2358086443_0_3" index="3" speed="11.11" length="9.02" shape="167.99,291.48 167.95,288.71 169.50,286.72 170.99,284.75 170.78,282.05"/>
        <lane id=":2358086443_0_4" index="4" speed="11.11" length="9.02" shape="170.95,290.28 169.11,288.38 166.67,288.23 164.17,288.10 162.16,286.28"/>
        <lane id=":2358086443_0_5" index="5" speed="11.11" length="9.02" shape="170.95,290.28 169.64,288.37 168.09,287.53 166.49,286.71 165.03,284.87"/>
        <lane id=":2358086443_0_6" index="6" speed="11.11" length="9.02" shape="170.95,290.28 167.90,283.46"/>
        <lane id=":2358086443_0_7" index="7" speed="11.11" length="9.02" shape="170.95,290.28 170.53,287.91 170.96,286.12 171.35,284.36 170.78,282.05"/>
        <lane id=":2358086443_0_8" index="8" speed="11.11" length="9.02" shape="173.92,289.08 171.49,287.04 168.18,287.61 164.80,288.22 162.16,286.28"/>
        <lane id=":2358086443_0_9" index="9" speed="11.11" length="9.02" shape="173.92,289.08 172.05,287.12 169.59,286.92 167.07,286.75 165.03,284.87"/>
        <lane id=":2358086443_0_10" index="10" speed="11.11" length="9.02" shape="173.92,289.08 172.58,287.11 171.01,286.22 169.39,285.36 167.90,283.46"/>
        <lane id=":2358086443_0_11" index="11" speed="11.11" length="9.02" shape="173.92,289.08 170.78,282.05"/>
    </edge>
    <edge id=":2358086443_12" function="internal">
        <lane id=":2358086443_12_0" index="0" speed="5.58" length="1.47" shape="173.92,289.08 174.22,287.62"/>
        <lane id=":2358086443_12_1" index="1" speed="4.72" length="1.47" shape="173.92,289.08 174.22,287.62"/>
        <lane id=":2358086443_12_2" index="2" speed="3.65" length="1.47" shape="173.92,289.08 174.21,287.66"/>
    </edge>
    <edge id=":2358086443_28" function="internal">
        <lane id=":2358086443_28_0" index="0" speed="5.58" length="12.53" shape="174.22,287.62 174.79,284.84 176.56,282.82 179.23,283.03 182.81,285.46"/>
        <lane id=":2358086443_28_1" index="0" speed="4.72" length="7.86" shape="174.22,287.62 174.50,286.25 175.68,284.91 177.46,285.05 179.85,286.67"/>
        <lane id=":2358086443_28_2" index="0" speed="3.65" length="3.23" shape="174.21,287.66 174.80,286.99 175.69,287.06 176.88,287.87"/>
    </edge>
    <edge id=":2358086443_15" function="internal">
        <lane id=":2358086443_15_0" index="0" speed="11.11" length="9.12" shape="179.40,277.83 182.81,285.46"/>
        <lane id=":2358086443_15_1" index="1" speed="11.11" length="9.12" shape="179.40,277.83 180.05,280.31 179.73,282.20 179.35,284.12 179.85,286.67"/>
        <lane id=":2358086443_15_2" index="2" speed="11.11" length="9.12" shape="179.40,277.83 179.69,280.68 178.26,282.79 176.77,284.93 176.88,287.87"/>
        <lane id=":2358086443_15_3" index="3" speed="11.11" length="9.12" shape="176.52,279.24 178.09,281.31 179.77,282.30 181.40,283.32 182.81,285.46"/>
        <lane id=":2358086443_15_4" index="4" speed="11.11" length="9.12" shape="176.52,279.24 179.85,286.67"/>
        <lane id=":2358086443_15_5" index="5" speed="11.11" length="9.12" shape="176.52,279.24 177.15,281.66 176.81,283.51 176.41,285.38 176.88,287.87"/>
        <lane id=":2358086443_15_6" index="6" speed="11.11" length="9.12" shape="173.65,280.64 175.77,282.68 178.36,283.00 180.88,283.34 182.81,285.46"/>
        <lane id=":2358086443_15_7" index="7" speed="11.11" length="9.12" shape="173.65,280.64 175.19,282.66 176.85,283.61 178.46,284.58 179.85,286.67"/>
        <lane id=":2358086443_15_8" index="8" speed="11.11" length="9.12" shape="173.65,280.64 176.88,287.87"/>
    </edge>
    <edge id=":2358086443_24" function="internal">
        <lane id=":2358086443_24_0" index="0" speed="6.33" length="1.55" shape="173.65,280.64 173.44,282.22"/>
        <lane id=":2358086443_24_1" index="1" speed="5.58" length="1.55" shape="173.65,280.64 173.44,282.22"/>
        <lane id=":2358086443_24_2" index="2" speed="4.72" length="1.55" shape="173.65,280.64 173.44,282.22"/>
        <lane id=":2358086443_24_3" index="3" speed="3.65" length="1.55" shape="173.65,280.64 173.46,282.07"/>
    </edge>
    <edge id=":2358086443_29" function="internal">
        <lane id=":2358086443_29_0" index="0" speed="6.33" length="17.11" shape="173.44,282.22 172.89,286.36 170.72,289.21 167.14,289.18 162.16,286.28"/>
        <lane id=":2358086443_29_1" index="0" speed="5.58" length="12.44" shape="173.44,282.22 173.08,284.93 171.45,287.07 168.77,287.05 165.03,284.87"/>
        <lane id=":2358086443_29_2" index="0" speed="4.72" length="7.76" shape="173.44,282.22 173.27,283.50 172.19,284.93 170.40,284.91 167.90,283.46"/>
        <lane id=":2358086443_29_3" index="0" speed="3.65" length="3.23" shape="173.46,282.07 172.92,282.79 172.02,282.78 170.78,282.05"/>
    </edge>
    <edge id=":2358086459_0" function="internal">
        <lane id=":2358086459_0_0" index="0" speed="11.11" length="8.93" shape="220.53,406.58 219.48,404.64 218.06,403.71 216.58,402.79 215.36,400.90"/>
        <lane id=":2358086459_0_1" index="1" speed="11.11" length="8.93" shape="220.53,406.58 218.37,399.81"/>
        <lane id=":2358086459_0_2" index="2" speed="11.11" length="8.93" shape="220.53,406.58 220.41,404.26 221.07,402.61 221.67,400.97 221.37,398.71"/>
        <lane id=":2358086459_0_3" index="3" speed="11.11" length="8.93" shape="220.53,406.58 220.82,403.84 222.59,402.05 224.30,400.29 224.38,397.62"/>
        <lane id=":2358086459_0_4" index="4" speed="11.11" length="8.93" shape="223.62,405.73 222.02,403.66 219.62,403.27 217.16,402.90 215.36,400.90"/>
        <lane id=":2358086459_0_5" index="5" speed="11.11" length="8.93" shape="223.62,405.73 222.54,403.71 221.10,402.73 219.61,401.76 218.37,399.81"/>
        <lane id=":2358086459_0_6" index="6" speed="11.11" length="8.93" shape="223.62,405.73 221.37,398.71"/>
        <lane id=":2358086459_0_7" index="7" speed="11.11" length="8.93" shape="223.62,405.73 223.47,403.34 224.11,401.63 224.70,399.95 224.38,397.62"/>
        <lane id=":2358086459_0_8" index="8" speed="11.11" length="8.93" shape="226.70,404.87 224.54,402.60 221.20,402.83 217.77,403.09 215.36,400.90"/>
        <lane id=":2358086459_0_9" index="9" speed="11.11" length="8.93" shape="226.70,404.87 225.08,402.74 222.67,402.29 220.19,401.87 218.37,399.81"/>
        <lane id=":2358086459_0_10" index="10" speed="11.11" length="8.93" shape="226.70,404.87 225.61,402.79 224.15,401.75 222.64,400.74 221.37,398.71"/>
        <lane id=":2358086459_0_11" index="11" speed="11.11" length="8.93" shape="226.70,404.87 224.38,397.62"/>
    </edge>
    <edge id=":2358086459_12" function="internal">
        <lane id=":2358086459_12_0" index="0" speed="5.58" length="1.47" shape="226.70,404.87 227.16,403.47"/>
        <lane id=":2358086459_12_1" index="1" speed="4.72" length="1.47" shape="226.70,404.87 227.16,403.47"/>
        <lane id=":2358086459_12_2" index="2" speed="3.65" length="1.47" shape="226.70,404.87 227.15,403.50"/>
    </edge>
    <edge id=":2358086459_28" function="internal">
        <lane id=":2358086459_28_0" index="0" speed="5.58" length="12.54" shape="227.16,403.47 228.05,400.76 230.05,398.97 232.68,399.48 235.95,402.31"/>
        <lane id=":2358086459_28_1" index="0" speed="4.72" length="7.87" shape="227.16,403.47 227.60,402.13 228.93,400.93 230.69,401.28 232.87,403.16"/>
        <lane id=":2358086459_28_2" index="0" speed="3.65" length="3.23" shape="227.15,403.50 227.82,402.90 228.69,403.08 229.78,404.02"/>
    </edge>
    <edge id=":2358086459_15" function="internal">
        <lane id=":2358086459_15_0" index="0" speed="11.11" length="9.11" shape="233.40,394.33 235.95,402.31"/>
        <lane id=":2358086459_15_1" index="1" speed="11.11" length="9.11" shape="233.40,394.33 233.79,396.87 233.26,398.71 232.67,400.57 232.87,403.16"/>
        <lane id=":2358086459_15_2" index="2" speed="11.11" length="9.11" shape="233.40,394.33 233.39,397.19 231.74,399.13 230.02,401.09 229.78,404.02"/>
        <lane id=":2358086459_15_3" index="3" speed="11.11" length="9.11" shape="230.40,395.43 231.74,397.66 233.30,398.83 234.80,400.02 235.95,402.31"/>
        <lane id=":2358086459_15_4" index="4" speed="11.11" length="9.11" shape="230.40,395.43 232.87,403.16"/>
        <lane id=":2358086459_15_5" index="5" speed="11.11" length="9.11" shape="230.40,395.43 230.76,397.89 230.21,399.68 229.60,401.49 229.78,404.02"/>
        <lane id=":2358086459_15_6" index="6" speed="11.11" length="9.11" shape="227.39,396.52 229.28,398.77 231.82,399.37 234.28,399.99 235.95,402.31"/>
        <lane id=":2358086459_15_7" index="7" speed="11.11" length="9.11" shape="227.39,396.52 228.70,398.68 230.25,399.80 231.73,400.94 232.87,403.16"/>
        <lane id=":2358086459_15_8" index="8" speed="11.11" length="9.11" shape="227.39,396.52 229.78,404.02"/>
    </edge>
    <edge id=":2358086459_24" function="internal">
        <lane id=":2358086459_24_0" index="0" speed="6.33" length="1.55" shape="227.39,396.52 227.01,398.07"/>
        <lane id=":2358086459_24_1" index="1" speed="5.58" length="1.55" shape="227.39,396.52 227.01,398.07"/>
        <lane id=":2358086459_24_2" index="2" speed="4.72" length="1.55" shape="227.39,396.52 227.01,398.07"/>
        <lane id=":2358086459_24_3" index="3" speed="3.65" length="1.55" shape="227.39,396.52 227.05,397.92"/>
    </edge>
    <edge id=":2358086459_29" function="internal">
        <lane id=":2358086459_29_0" index="0" speed="6.33" length="17.10" shape="227.01,398.07 226.02,402.13 223.56,404.72 220.01,404.32 215.36,400.90"/>
        <lane id=":2358086459_29_1" index="0" speed="5.58" length="12.43" shape="227.01,398.07 226.37,400.73 224.52,402.67 221.85,402.37 218.37,399.81"/>
        <lane id=":2358086459_29_2" index="0" speed="4.72" length="7.76" shape="227.01,398.07 226.71,399.32 225.48,400.62 223.70,400.42 221.37,398.71"/>
        <lane id=":2358086459_29_3" index="0" speed="3.65" length="3.23" shape="227.05,397.92 226.43,398.57 225.54,398.47 224.38,397.62"/>
    </edge>
    <edge id=":2358086462_0" function="internal">
        <lane id=":2358086462_0_0" index="0" speed="11.11" length="1.75" shape="49.49,228.11 49.37,228.17 49.30,228.22 49.22,228.26 49.10,228.32"/>
        <lane id=":2358086462_0_1" index="1" speed="11.11" length="1.75" shape="49.49,228.11 47.70,225.44"/>
        <lane id=":2358086462_0_2" index="2" speed="11.11" length="1.75" shape="47.83,225.37 49.10,228.32"/>
        <lane id=":2358086462_0_3" index="3" speed="11.11" length="1.75" shape="47.83,225.37 47.79,225.39 47.77,225.41 47.74,225.42 47.70,225.44"/>
    </edge>
    <edge id=":2358091642_0" function="internal">
        <lane id=":2358091642_0_0" index="0" speed="4.72" length="7.01" shape="51.16,33.87 51.52,31.01 52.59,29.58 54.38,29.58 56.89,31.02"/>
        <lane id=":2358091642_0_1" index="1" speed="3.65" length="7.01" shape="51.16,33.87 51.34,32.44 51.88,31.73 52.77,31.73 54.02,32.45"/>
    </edge>
    <edge id=":269388345_0" function="internal">
        <lane id=":269388345_0_0" index="0" speed="11.11" length="16.60" shape="201.61,501.36 197.64,501.80 193.35,502.14 189.06,502.38 185.06,502.56"/>
    </edge>
    <edge id=":269388345_1" function="internal">
        <lane id=":269388345_1_0" index="0" speed="11.11" length="3.63" shape="201.61,501.36 198.29,501.20 198.01,501.09"/>
    </edge>
    <edge id=":269388345_2" function="internal">
        <lane id=":269388345_2_0" index="0" speed="3.65" length="1.44" shape="201.61,501.36 200.32,500.73"/>
    </edge>
    <edge id=":269388345_8" function="internal">
        <lane id=":269388345_8_0" index="0" speed="11.11" length="13.17" shape="198.01,501.09 194.81,499.85 191.19,497.30 187.42,493.55"/>
    </edge>
    <edge id=":269388345_9" function="internal">
        <lane id=":269388345_9_0" index="0" speed="3.65" length="3.23" shape="200.32,500.73 199.81,499.99 200.10,499.14 201.18,498.19"/>
    </edge>
    <edge id=":269388345_3" function="internal">
        <lane id=":269388345_3_0" index="0" speed="10.44" length="13.68" shape="189.82,491.43 192.99,494.63 195.94,496.82 198.67,498.01 201.18,498.19"/>
    </edge>
    <edge id=":269388345_4" function="internal">
        <lane id=":269388345_4_0" index="0" speed="7.38" length="18.16" shape="189.82,491.43 193.03,496.09 193.31,499.50 190.65,501.66 185.06,502.56"/>
    </edge>
    <edge id=":269388345_5" function="internal">
        <lane id=":269388345_5_0" index="0" speed="5.53" length="9.48" shape="184.94,499.36 187.86,498.89 189.24,497.76 189.10,495.98 187.42,493.55"/>
    </edge>
    <edge id=":269388345_6" function="internal">
        <lane id=":269388345_6_0" index="0" speed="11.11" length="16.29" shape="184.94,499.36 188.89,499.19 193.08,498.95 197.26,498.63 201.18,498.19"/>
    </edge>
    <edge id=":269388345_7" function="internal">
        <lane id=":269388345_7_0" index="0" speed="3.65" length="1.44" shape="184.94,499.36 186.17,500.11"/>
    </edge>
    <edge id=":269388345_10" function="internal">
        <lane id=":269388345_10_0" index="0" speed="3.65" length="3.23" shape="186.17,500.11 186.60,500.90 186.23,501.71 185.06,502.56"/>
    </edge>
    <edge id=":269388769_0" function="internal">