<?xml version="1.0" encoding="utf-8"?>
	<edges xmlns:xsi="http://www.w3.org/2001/XMLSchema-instance" xsi:noNamespaceSchemaLocation="http://sumo.dlr.de/xsd/edges_file.xsd">
		<edge id="-13400999" from="361142995" to="2302151437" numLanes="1" speed="11.111" priority="-1"/>
		<edge id="-182456135" from="361142995" to="2358086434" numLanes="4" speed="11.111" priority="-1"/>
		<edge id="-185720528" from="2358091642" to="269390046" numLanes="2" speed="11.111" priority="-1"/>
		<edge id="-209921197.0" from="269388345" to="gneJ0" numLanes="1" speed="11.111" priority="-1"/>
		<edge id="-227078004" from="2200742494" to="2200742478" numLanes="1" speed="11.111" priority="-1"/>
		<edge id="-313036847" from="2200742494" to="3189601354" numLanes="2" speed="11.111" priority="-1"/>
		<edge id="-405366763" from="4075688778" to="2358086443" numLanes="3" speed="11.111" priority="-1"/>
		<edge id="-405366764" from="cluster_16298125_4757166089" to="4075688777" numLanes="3" speed="11.111" priority="-1"/>
		<edge id="-405366766" from="269390069" to="4075688778" numLanes="3" speed="11.111" priority="-1"/>
		<edge id="-405366768" from="269390046" to="4075688776" numLanes="4" speed="11.111" priority="-1"/>
		<edge id="-405366770" from="2358086443" to="4075688779" numLanes="3" speed="11.111" priority="-1"/>
		<edge id="-405366771" from="4075688776" to="cluster_16298125_4757166089" numLanes="5" speed="11.111" priority="-1"/>
		<edge id="-405366773" from="4075688779" to="2200742494" numLanes="5" speed="11.111" priority="-1"/>
		<edge id="-405367632" from="2358086459" to="269388769" numLanes="3" speed="11.111" priority="-1"/>
		<edge id="-405367634" from="2200742494" to="269388771" numLanes="3" speed="11.111" priority="-1"/>
		<edge id="-405367637" from="269388771" to="2358086459" numLanes="3" speed="11.111" priority="-1"/>
		<edge id="-405367638" from="269388769" to="2358086440" numLanes="4" speed="11.111" priority="-1"/>
		<edge id="-405367639" from="4075727445" to="361142995" numLanes="5" speed="11.111" priority="-1"/>
		<edge id="-405367640" from="2358086440" to="4075727445" numLanes="3" speed="11.111" priority="-1"/>
		<edge id="-506148923#0" from="269388345" to="361142995" numLanes="1" speed="11.111" priority="-1"/>
		<edge id="-506148923#1" from="5547258318" to="269388345" numLanes="1" speed="11.111" priority="-1"/>
		<edge id="-518178646" from="4075688777" to="344050122" numLanes="3" speed="11.111" priority="-1"/>
		<edge id="-518178745" from="344050122" to="269390069" numLanes="3" speed="11.111" priority="-1"/>
		<edge id="13400999" from="2302151437" to="361142995" numLanes="1" speed="11.111" priority="-1"/>
		<edge id="182456135" from="2358086434" to="361142995" numLanes="5" speed="11.111" priority="-1"/>
		<edge id="185720528" from="269390046" to="2358091642" numLanes="3" speed="11.111" priority="-1"/>
		<edge id="209921197.145" from="gneJ0" to="269388345" numLanes="1" speed="11.111" priority="-1"/>
		<edge id="313036847" from="3189601354" to="2200742494" numLanes="2" speed="11.111" priority="-1"/>
		<edge id="405366763" from="2358086443" to="4075688778" numLanes="4" speed="11.111" priority="-1"/>
		<edge id="405366764" from="4075688777" to="cluster_16298125_4757166089" numLanes="6" speed="11.111" priority="-1"/>
		<edge id="405366766" from="4075688778" to="269390069" numLanes="5" speed="11.111" priority="-1"/>
		<edge id="405366768" from="4075688776" to="269390046" numLanes="3" speed="11.111" priority="-1"/>
		<edge id="405366770" from="4075688779" to="2358086443" numLanes="3" speed="11.111" priority="-1"/>
		<edge id="405366771" from="cluster_16298125_4757166089" to="4075688776" numLanes="3" speed="11.111" priority="-1"/>
		<edge id="405366773" from="2200742494" to="4075688779" numLanes="3" speed="11.111" priority="-1"/>
		<edge id="405367632" from="269388769" to="2358086459" numLanes="3" speed="11.111" priority="-1"/>
		<edge id="405367634" from="269388771" to="2200742494" numLanes="5" speed="11.111" priority="-1"/>
		<edge id="405367637" from="2358086459" to="269388771" numLanes="4" speed="11.111" priority="-1"/>
		<edge id="405367638" from="2358086440" to="269388769" numLanes="5" speed="11.111" priority="-1"/>
		<edge id="405367639" from="361142995" to="4075727445" numLanes="4" speed="11.111" priority="-1"/>
		<edge id="405367640" from="4075727445" to="2358086440" numLanes="3" speed="11.111" priority="-1"/>
		<edge id="468917797.108" from="gneJ2" to="269390046" numLanes="3" speed="11.111" priority="-1"/>
		<edge id="482940996#1" from="2358086462" to="4757166090" numLanes="2" speed="11.111" priority="-1"/>
		<edge id="506148923#0" from="361142995" to="269388345" numLanes="1" speed="11.111" priority="-1"/>
		<edge id="506148923#1" from="269388345" to="5547258318" numLanes="1" speed="11.111" priority="-1"/>
		<edge id="508809477#0" from="2200742478" to="2200742494" numLanes="1" speed="11.111" priority="-1"/>
		<edge id="508815228" from="4980717088" to="cluster_16298125_4757166089" numLanes="2" speed="11.111" priority="-1"/>
		<edge id="508815234" from="cluster_16298125_4757166089" to="2358086462" numLanes="2" speed="11.111" priority="-1"/>
		<edge id="518178646" from="344050122" to="4075688777" numLanes="5" speed="11.111" priority="-1"/>
		<edge id="518178745" from="269390069" to="344050122" numLanes="5" speed="11.111" priority="-1"/>
		<edge id="518179568" from="cluster_16298125_4757166089" to="4757166095" numLanes="3" speed="11.111" priority="-1"/>
		<edge id="518179569" from="4757166098" to="cluster_16298125_4757166089" numLanes="3" speed="11.111" priority="-1"/>
	</edges>
