<?xml version="1.0" encoding="utf-8"?>
	<routes xmlns:xsi="http://www.w3.org/2001/XMLSchema-instance" xsi:noNamespaceSchemaLocation="http://sumo.dlr.de/xsd/routes_file.xsd">
		<vType id="pkw" length="5.0" width="2.0" minGap="2.5" maxSpeed="11.111" accel="2.0" decel="4.5"/>
		<vehicle id="0" depart="0">
			<route edges="-185720528 -405366768 -405366771 -405366764 -518178646 -518178745 -405366766 -405366763 -405366770 -405366773 -405367634 -405367637 -405367632 -405367638 -405367640 -405367639 -182456135"/>
		</vehicle>
		<vehicle id="1" depart="0">
			<route edges="468917797.108 -405366768 -405366771 -405366764 -518178646 -518178745 -405366766 -405366763 -405366770 -405366773 -313036847"/>
		</vehicle>
		<vehicle id="2" depart="3">
			<route edges="-185720528 -405366768 -405366771 -405366764 -518178646 -518178745 -405366766 -405366763 -405366770 -405366773 -405367634 -405367637 -405367632 -405367638 -405367640 -405367639 -182456135"/>
		</vehicle>
		<vehicle id="3" depart="3">
			<route edges="182456135 405367639 405367640 405367638 405367632 405367637 405367634 405366773 405366770 405366763 405366766 518178745 518178646 405366764 405366771 405366768 185720528"/>
		</vehicle>
		<vehicle id="4" depart="3">
			<route edges="182456135 405367639 405367640 405367638 405367632 405367637 405367634 405366773 405366770 405366763 405366766 518178745 518178646 405366764 405366771 405366768 185720528"/>
		</vehicle>
		<vehicle id="5" depart="4">
			<route edges="182456135 405367639 405367640 405367638 405367632 405367637 405367634 405366773 405366770 405366763 405366766 518178745 518178646 405366764 405366771 405366768 185720528"/>
		</vehicle>
		<vehicle id="6" depart="5">
			<route edges="-185720528 -405366768 -405366771 518179568"/>
		</vehicle>
		<vehicle id="7" depart="6">
			<route edges="182456135 405367639 405367640 405367638 405367632 405367637 405367634 405366773 405366770 405366763 405366766 518178745 518178646 405366764 405366771 405366768 185720528"/>
		</vehicle>
		<vehicle id="8" depart="7">
			<route edges="-185720528 -405366768 -405366771 -405366764 -518178646 -518178745 -405366766 -405366763 -405366770 -405366773 -405367634 -405367637 -405367632 -405367638 -405367640 -405367639 -182456135"/>
		</vehicle>
		<vehicle id="9" depart="9">
			<route edges="182456135 405367639 405367640 405367638 405367632 405367637 405367634 405366773 405366770 405366763 405366766 518178745 518178646 405366764 405366771 405366768 185720528"/>
		</vehicle>
		<vehicle id="10" depart="9">
			<route edges="182456135 405367639 405367640 405367638 405367632 405367637 405367634 405366773 405366770 405366763 405366766 518178745 518178646 405366764 405366771 405366768 185720528"/>
		</vehicle>
		<vehicle id="11" depart="9">
			<route edges="468917797.108 185720528"/>
		</vehicle>
		<vehicle id="12" depart="9">
			<route edges="468917797.108 -405366768 -405366771 -405366764 -518178646 -518178745 -405366766 -405366763 -405366770 -405366773 -405367634 -405367637 -405367632 -405367638 -405367640 -405367639 -182456135"/>
		</vehicle>
		<vehicle id="13" depart="9">
			<route edges="518179569 508815234 482940996#1"/>
		</vehicle>
		<vehicle id="14" depart="9">
			<route edges="518179569 508815234 482940996#1"/>
		</vehicle>
		<vehicle id="15" depart="10">
			<route edges="182456135 405367639 405367640 405367638 405367632 405367637 405367634 405366773 405366770 405366763 405366766 518178745 518178646 405366764 405366771 405366768 185720528"/>
		</vehicle>
		<vehicle id="16" depart="12">
			<route edges="182456135 405367639 405367640 405367638 405367632 405367637 405367634 405366773 405366770 405366763 405366766 518178745 518178646 405366764 405366771 405366768 185720528"/>
		</vehicle>
		<vehicle id="17" depart="12">
			<route edges="182456135 405367639 405367640 405367638 405367632 405367637 405367634 405366773 405366770 405366763 405366766 518178745 518178646 405366764 518179568"/>
		</vehicle>
		<vehicle id="18" depart="13">
			<route edges="468917797.108 -405366768 -405366771 -405366764 -518178646 -518178745 -405366766 -405366763 -405366770 -405366773 -405367634 -405367637 -405367632 -405367638 -405367640 -405367639 -182456135"/>
		</vehicle>
		<vehicle id="19" depart="16">
			<route edges="468917797.108 -405366768 -405366771 -405366764 -518178646 -518178745 -405366766 -405366763 -405366770 -405366773 -405367634 -405367637 -405367632 -405367638 -405367640 -405367639 -182456135"/>
		</vehicle>
		<vehicle id="20" depart="17">
			<route edges="468917797.108 -405366768 -405366771 -405366764 -518178646 -518178745 -405366766 -405366763 -405366770 -405366773 -405367634 -405367637 -405367632 -405367638 -405367640 -405367639 -182456135"/>
		</vehicle>
		<vehicle id="21" depart="18">
			<route edges="468917797.108 -405366768 -405366771 -405366764 -518178646 -518178745 -405366766 -405366763 -405366770 -405366773 -405367634 -405367637 -405367632 -405367638 -405367640 -405367639 -182456135"/>
		</vehicle>
		<vehicle id="22" depart="20">
			<route edges="468917797.108 -405366768 -405366771 518179568"/>
		</vehicle>
		<vehicle id="23" depart="20">
			<route edges="518179569 405366771 405366768 185720528"/>
		</vehicle>
		<vehicle id="24" depart="21">
			<route edges="468917797.108 -405366768 -405366771 -405366764 -518178646 -518178745 -405366766 -405366763 -405366770 -405366773 -405367634 -405367637 -405367632 -405367638 -405367640 -405367639 -182456135"/>
		</vehicle>
		<vehicle id="25" depart="22">
			<route edges="468917797.108 -405366768 -405366771 518179568"/>
		</vehicle>
		<vehicle id="26" depart="22">
			<route edges="468917797.108 -405366768 -405366771 -405366764 -518178646 -518178745 -405366766 -405366763 -405366770 -405366773 -405367634 -405367637 -405367632 -405367638 -405367640 -405367639 -182456135"/>
		</vehicle>
		<vehicle id="27" depart="25">
			<route edges="182456135 405367639 405367640 405367638 405367632 405367637 405367634 405366773 405366770 405366763 405366766 518178745 518178646 405366764 518179568"/>
		</vehicle>
		<vehicle id="28" depart="25">
			<route edges="468917797.108 -405366768 -405366771 -405366764 -518178646 -518178745 -405366766 -405366763 -405366770 -405366773 -405367634 -405367637 -405367632 -405367638 -405367640 -405367639 -13400999"/>
		</vehicle>
		<vehicle id="29" depart="26">
			<route edges="182456135 405367639 405367640 405367638 405367632 405367637 405367634 405366773 405366770 405366763 405366766 518178745 518178646 405366764 405366771 405366768 185720528"/>
		</vehicle>
		<vehicle id="30" depart="28">
			<route edges="518179569 508815234 482940996#1"/>
		</vehicle>
		<vehicle id="31" depart="29">
			<route edges="468917797.108 -405366768 -405366771 -405366764 -518178646 -518178745 -405366766 -405366763 -405366770 -405366773 -405367634 -405367637 -405367632 -405367638 -405367640 -405367639 -13400999"/>
		</vehicle>
		<vehicle id="32" depart="29">
			<route edges="518179569 508815234 482940996#1"/>
		</vehicle>
		<vehicle id="33" depart="29">
			<route edges="518179569 -405366764 -518178646 -518178745 -405366766 -405366763 -405366770 -405366773 -405367634 -405367637 -405367632 -405367638 -405367640 -405367639 -182456135"/>
		</vehicle>
		<vehicle id="34" depart="31">
			<route edges="182456135 405367639 405367640 405367638 405367632 405367637 405367634 405366773 405366770 405366763 405366766 518178745 518178646 405366764 405366771 405366768 185720528"/>
		</vehicle>
		<vehicle id="35" depart="35">
			<route edges="-185720528 -405366768 -405366771 518179568"/>
		</vehicle>
		<vehicle id="36" depart="35">
			<route edges="182456135 405367639 405367640 405367638 405367632 405367637 405367634 405366773 405366770 405366763 405366766 518178745 518178646 405366764 518179568"/>
		</vehicle>
		<vehicle id="37" depart="36">
			<route edges="182456135 405367639 405367640 405367638 405367632 405367637 405367634 405366773 405366770 405366763 405366766 518178745 518178646 405366764 405366771 405366768 185720528"/>
		</vehicle>
		<vehicle id="38" depart="36">
			<route edges="182456135 405367639 405367640 405367638 405367632 405367637 405367634 405366773 405366770 405366763 405366766 518178745 518178646 405366764 405366771 405366768 185720528"/>
		</vehicle>
		<vehicle id="39" depart="38">
			<route edges="182456135 405367639 405367640 405367638 405367632 405367637 405367634 405366773 405366770 405366763 405366766 518178745 518178646 405366764 518179568"/>
		</vehicle>
		<vehicle id="40" depart="38">
			<route edges="182456135 405367639 405367640 405367638 405367632 405367637 405367634 405366773 405366770 405366763 405366766 518178745 518178646 405366764 405366771 405366768 185720528"/>
		</vehicle>
		<vehicle id="41" depart="38">
			<route edges="182456135 405367639 405367640 405367638 405367632 405367637 405367634 405366773 405366770 405366763 405366766 518178745 518178646 405366764 405366771 405366768 185720528"/>
		</vehicle>
		<vehicle id="42" depart="39">
			<route edges="182456135 405367639 405367640 405367638 405367632 405367637 405367634 405366773 405366770 405366763 405366766 518178745 518178646 405366764 405366771 405366768 185720528"/>
		</vehicle>
		<vehicle id="43" depart="39">
			<route edges="182456135 405367639 405367640 405367638 405367632 405367637 405367634 405366773 405366770 405366763 405366766 518178745 518178646 405366764 508815234 482940996#1"/>
		</vehicle>
		<vehicle id="44" depart="39">
			<route edges="182456135 405367639 405367640 405367638 405367632 405367637 405367634 405366773 405366770 405366763 405366766 518178745 518178646 405366764 405366771 405366768 185720528"/>
		</vehicle>
		<vehicle id="45" depart="41">
			<route edges="182456135 405367639 405367640 405367638 405367632 405367637 405367634 405366773 405366770 405366763 405366766 518178745 518178646 405366764 405366771 405366768 185720528"/>
		</vehicle>
		<vehicle id="46" depart="41">
			<route edges="182456135 405367639 405367640 405367638 405367632 405367637 405367634 405366773 405366770 405366763 405366766 518178745 518178646 405366764 405366771 405366768 185720528"/>
		</vehicle>
		<vehicle id="47" depart="42">
			<route edges="182456135 405367639 405367640 405367638 405367632 405367637 405367634 405366773 405366770 405366763 405366766 518178745 518178646 405366764 518179568"/>
		</vehicle>
		<vehicle id="48" depart="42">
			<route edges="182456135 405367639 405367640 405367638 405367632 405367637 405367634 405366773 405366770 405366763 405366766 518178745 518178646 405366764 518179568"/>
		</vehicle>
		<vehicle id="49" depart="42">
			<route edges="182456135 405367639 405367640 405367638 405367632 405367637 405367634 405366773 405366770 405366763 405366766 518178745 518178646 405366764 405366771 405366768 185720528"/>
		</vehicle>
		<vehicle id="50" depart="42">
			<route edges="518179569 -405366764 -518178646 -518178745 -405366766 -405366763 -405366770 -405366773 -405367634 -405367637 -405367632 -405367638 -405367640 -405367639 -182456135"/>
		</vehicle>
		<vehicle id="51" depart="44">
			<route edges="182456135 405367639 405367640 405367638 405367632 405367637 405367634 405366773 405366770 405366763 405366766 518178745 518178646 405366764 405366771 405366768 185720528"/>
		</vehicle>
		<vehicle id="52" depart="44">
			<route edges="182456135 405367639 405367640 405367638 405367632 405367637 405367634 -227078004"/>
		</vehicle>
		<vehicle id="53" depart="46">
			<route edges="182456135 405367639 405367640 405367638 405367632 405367637 405367634 405366773 405366770 405366763 405366766 518178745 518178646 405366764 518179568"/>
		</vehicle>
		<vehicle id="54" depart="46">
			<route edges="182456135 405367639 405367640 405367638 405367632 405367637 405367634 405366773 405366770 405366763 405366766 518178745 518178646 405366764 405366771 405366768 185720528"/>
		</vehicle>
		<vehicle id="55" depart="47">
			<route edges="182456135 405367639 405367640 405367638 405367632 405367637 405367634 405366773 405366770 405366763 405366766 518178745 518178646 405366764 405366771 405366768 185720528"/>
		</vehicle>
		<vehicle id="56" depart="47">
			<route edges="518179569 -405366764 -518178646 -518178745 -405366766 -405366763 -405366770 -405366773 -405367634 -405367637 -405367632 -405367638 -405367640 -405367639 -182456135"/>
		</vehicle>
		<vehicle id="57" depart="48">
			<route edges="182456135 405367639 405367640 405367638 405367632 405367637 405367634 405366773 405366770 405366763 405366766 518178745 518178646 405366764 518179568"/>
		</vehicle>
		<vehicle id="58" depart="50">
			<route edges="182456135 405367639 405367640 405367638 405367632 405367637 405367634 405366773 405366770 405366763 405366766 518178745 518178646 405366764 405366771 405366768 185720528"/>
		</vehicle>
		<vehicle id="59" depart="50">
			<route edges="182456135 405367639 405367640 405367638 405367632 405367637 405367634 405366773 405366770 405366763 405366766 518178745 518178646 405366764 518179568"/>
		</vehicle>
		<vehicle id="60" depart="51">
			<route edges="182456135 405367639 405367640 405367638 405367632 405367637 405367634 405366773 405366770 405366763 405366766 518178745 518178646 405366764 518179568"/>
		</vehicle>
		<vehicle id="61" depart="53">
			<route edges="508815228 -405366764 -518178646 -518178745 -405366766 -405366763 -405366770 -405366773 -405367634 -405367637 -405367632 -405367638 -405367640 -405367639 -182456135"/>
		</vehicle>
		<vehicle id="62" depart="55">
			<route edges="-185720528 -405366768 -405366771 -405366764 -518178646 -518178745 -405366766 -405366763 -405366770 -405366773 -405367634 -405367637 -405367632 -405367638 -405367640 -405367639 -182456135"/>
		</vehicle>
		<vehicle id="63" depart="55">
			<route edges="182456135 405367639 405367640 405367638 405367632 405367637 405367634 405366773 405366770 405366763 405366766 518178745 518178646 405366764 518179568"/>
		</vehicle>
		<vehicle id="64" depart="55">
			<route edges="182456135 405367639 405367640 405367638 405367632 405367637 405367634 405366773 405366770 405366763 405366766 518178745 518178646 405366764 405366771 405366768 185720528"/>
		</vehicle>
		<vehicle id="65" depart="55">
			<route edges="182456135 405367639 405367640 405367638 405367632 405367637 405367634 405366773 405366770 405366763 405366766 518178745 518178646 405366764 405366771 405366768 185720528"/>
		</vehicle>
		<vehicle id="66" depart="56">
			<route edges="508815228 -405366764 -518178646 -518178745 -405366766 -405366763 -405366770 -405366773 -405367634 -405367637 -405367632 -405367638 -405367640 -405367639 -182456135"/>
		</vehicle>
		<vehicle id="67" depart="57">
			<route edges="468917797.108 -405366768 -405366771 -405366764 -518178646 -518178745 -405366766 -405366763 -405366770 -405366773 -405367634 -405367637 -405367632 -405367638 -405367640 -405367639 -182456135"/>
		</vehicle>
		<vehicle id="68" depart="57">
			<route edges="468917797.108 185720528"/>
		</vehicle>
		<vehicle id="69" depart="58">
			<route edges="508815228 -405366764 -518178646 -518178745 -405366766 -405366763 -405366770 -405366773 -405367634 -405367637 -405367632 -405367638 -405367640 -405367639 -13400999"/>
		</vehicle>
		<vehicle id="70" depart="59">
			<route edges="508815228 518179568"/>
		</vehicle>
		<vehicle id="71" depart="60">
			<route edges="182456135 405367639 405367640 405367638 405367632 405367637 405367634 405366773 405366770 405366763 405366766 518178745 518178646 405366764 405366771 405366768 185720528"/>
		</vehicle>
		<vehicle id="72" depart="60">
			<route edges="508815228 -405366764 -518178646 -518178745 -405366766 -405366763 -405366770 -405366773 -405367634 -405367637 -405367632 -405367638 -405367640 -405367639 -13400999"/>
		</vehicle>
		<vehicle id="73" depart="61">
			<route edges="182456135 405367639 405367640 405367638 405367632 405367637 405367634 405366773 405366770 405366763 405366766 518178745 518178646 405366764 518179568"/>
		</vehicle>
		<vehicle id="74" depart="61">
			<route edges="182456135 405367639 405367640 405367638 405367632 405367637 405367634 -313036847"/>
		</vehicle>
		<vehicle id="75" depart="62">
			<route edges="182456135 405367639 405367640 405367638 405367632 405367637 405367634 405366773 405366770 405366763 405366766 518178745 518178646 405366764 518179568"/>
		</vehicle>
		<vehicle id="76" depart="62">
			<route edges="468917797.108 -405366768 -405366771 -405366764 -518178646 -518178745 -405366766 -405366763 -405366770 -405366773 -405367634 -405367637 -405367632 -405367638 -405367640 -405367639 -182456135"/>
		</vehicle>
		<vehicle id="77" depart="62">
			<route edges="468917797.108 -405366768 -405366771 -405366764 -518178646 -518178745 -405366766 -405366763 -405366770 -405366773 -405367634 -405367637 -405367632 -405367638 -405367640 -405367639 -13400999"/>
		</vehicle>
		<vehicle id="78" depart="63">
			<route edges="182456135 405367639 405367640 405367638 405367632 405367637 405367634 405366773 405366770 405366763 405366766 518178745 518178646 405366764 518179568"/>
		</vehicle>
		<vehicle id="79" depart="64">
			<route edges="-185720528 -405366768 -405366771 518179568"/>
		</vehicle>
		<vehicle id="80" depart="65">
			<route edges="182456135 405367639 405367640 405367638 405367632 405367637 405367634 405366773 405366770 405366763 405366766 518178745 518178646 405366764 518179568"/>
		</vehicle>
		<vehicle id="81" depart="65">
			<route edges="182456135 405367639 405367640 405367638 405367632 405367637 405367634 405366773 405366770 405366763 405366766 518178745 518178646 405366764 405366771 405366768 185720528"/>
		</vehicle>
		<vehicle id="82" depart="65">
			<route edges="468917797.108 -405366768 -405366771 -405366764 -518178646 -518178745 -405366766 -405366763 -405366770 -405366773 -405367634 -405367637 -405367632 -405367638 -405367640 -405367639 -13400999"/>
		</vehicle>
		<vehicle id="83" depart="66">
			<route edges="-185720528 -405366768 -405366771 518179568"/>
		</vehicle>
		<vehicle id="84" depart="67">
			<route edges="182456135 405367639 405367640 405367638 405367632 405367637 405367634 405366773 405366770 405366763 405366766 518178745 518178646 405366764 405366771 405366768 185720528"/>
		</vehicle>
		<vehicle id="85" depart="67">
			<route edges="182456135 405367639 405367640 405367638 405367632 405367637 405367634 405366773 405366770 405366763 405366766 518178745 518178646 405366764 405366771 405366768 185720528"/>
		</vehicle>
		<vehicle id="86" depart="68">
			<route edges="-185720528 -405366768 -405366771 518179568"/>
		</vehicle>
		<vehicle id="87" depart="70">
			<route edges="-185720528 -405366768 -405366771 518179568"/>
		</vehicle>
		<vehicle id="88" depart="71">
			<route edges="182456135 405367639 405367640 405367638 405367632 405367637 405367634 405366773 405366770 405366763 405366766 518178745 518178646 405366764 405366771 405366768 185720528"/>
		</vehicle>
		<vehicle id="89" depart="71">
			<route edges="182456135 405367639 405367640 405367638 405367632 405367637 405367634 405366773 405366770 405366763 405366766 518178745 518178646 405366764 508815234 482940996#1"/>
		</vehicle>
		<vehicle id="90" depart="73">
			<route edges="182456135 405367639 405367640 405367638 405367632 405367637 405367634 405366773 405366770 405366763 405366766 518178745 518178646 405366764 518179568"/>
		</vehicle>
		<vehicle id="91" depart="73">
			<route edges="518179569 405366771 405366768 185720528"/>
		</vehicle>
		<vehicle id="92" depart="73">
			<route edges="518179569 -405366764 -518178646 -518178745 -405366766 -405366763 -405366770 -405366773 -405367634 -405367637 -405367632 -405367638 -405367640 -405367639 -182456135"/>
		</vehicle>
		<vehicle id="93" depart="74">
			<route edges="-185720528 -405366768 -405366771 508815234 482940996#1"/>
		</vehicle>
		<vehicle id="94" depart="74">
			<route edges="182456135 405367639 405367640 405367638 405367632 405367637 405367634 405366773 405366770 405366763 405366766 518178745 518178646 405366764 405366771 405366768 185720528"/>
		</vehicle>
		<vehicle id="95" depart="74">
			<route edges="182456135 405367639 405367640 405367638 405367632 405367637 405367634 405366773 405366770 405366763 405366766 518178745 518178646 405366764 405366771 405366768 185720528"/>
		</vehicle>
		<vehicle id="96" depart="75">
			<route edges="182456135 405367639 405367640 405367638 405367632 405367637 405367634 405366773 405366770 405366763 405366766 518178745 518178646 405366764 405366771 405366768 185720528"/>
		</vehicle>
		<vehicle id="97" depart="76">
			<route edges="-185720528 -405366768 -405366771 518179568"/>
		</vehicle>
		<vehicle id="98" depart="76">
			<route edges="182456135 405367639 405367640 405367638 405367632 405367637 405367634 405366773 405366770 405366763 405366766 518178745 518178646 405366764 405366771 405366768 185720528"/>
		</vehicle>
		<vehicle id="99" depart="76">
			<route edges="182456135 405367639 405367640 405367638 405367632 405367637 405367634 405366773 405366770 405366763 405366766 518178745 518178646 405366764 518179568"/>
		</vehicle>
		<vehicle id="100" depart="77">
			<route edges="182456135 405367639 405367640 405367638 405367632 405367637 405367634 405366773 405366770 405366763 405366766 518178745 518178646 405366764 405366771 405366768 185720528"/>
		</vehicle>
		<vehicle id="101" depart="78">
			<route edges="182456135 405367639 405367640 405367638 405367632 405367637 405367634 405366773 405366770 405366763 405366766 518178745 518178646 405366764 405366771 405366768 185720528"/>
		</vehicle>
		<vehicle id="102" depart="79">
			<route edges="-185720528 -405366768 -405366771 -405366764 -518178646 -518178745 -405366766 -405366763 -405366770 -405366773 -405367634 -405367637 -405367632 -405367638 -405367640 -405367639 -182456135"/>
		</vehicle>
		<vehicle id="103" depart="80">
			<route edges="-185720528 -405366768 -405366771 -405366764 -518178646 -518178745 -405366766 -405366763 -405366770 -405366773 -405367634 -405367637 -405367632 -405367638 -405367640 -405367639 -182456135"/>
		</vehicle>
		<vehicle id="104" depart="80">
			<route edges="-185720528 -405366768 -405366771 518179568"/>
		</vehicle>
		<vehicle id="105" depart="80">
			<route edges="182456135 405367639 405367640 405367638 405367632 405367637 405367634 405366773 405366770 405366763 405366766 518178745 518178646 405366764 508815234 482940996#1"/>
		</vehicle>
		<vehicle id="106" depart="82">
			<route edges="468917797.108 -405366768 -405366771 -405366764 -518178646 -518178745 -405366766 -405366763 -405366770 -405366773 -405367634 -405367637 -405367632 -405367638 -405367640 -405367639 -182456135"/>
		</vehicle>
		<vehicle id="107" depart="83">
			<route edges="182456135 405367639 405367640 405367638 405367632 405367637 405367634 405366773 405366770 405366763 405366766 518178745 518178646 405366764 405366771 405366768 185720528"/>
		</vehicle>
		<vehicle id="108" depart="85">
			<route edges="-185720528 -405366768 -405366771 518179568"/>
		</vehicle>
		<vehicle id="109" depart="85">
			<route edges="182456135 405367639 405367640 405367638 405367632 405367637 405367634 405366773 405366770 405366763 405366766 518178745 518178646 405366764 405366771 405366768 185720528"/>
		</vehicle>
		<vehicle id="110" depart="85">
			<route edges="182456135 405367639 405367640 405367638 405367632 405367637 405367634 405366773 405366770 405366763 405366766 518178745 518178646 405366764 518179568"/>
		</vehicle>
		<vehicle id="111" depart="85">
			<route edges="468917797.108 -405366768 -405366771 -405366764 -518178646 -518178745 -405366766 -405366763 -405366770 -405366773 -405367634 -405367637 -405367632 -405367638 -405367640 -405367639 -182456135"/>
		</vehicle>
		<vehicle id="112" depart="86">
			<route edges="-185720528 -405366768 -405366771 -405366764 -518178646 -518178745 -405366766 -405366763 -405366770 -405366773 -405367634 -405367637 -405367632 -405367638 -405367640 -405367639 -182456135"/>
		</vehicle>
		<vehicle id="113" depart="87">
			<route edges="182456135 405367639 405367640 405367638 405367632 405367637 405367634 405366773 405366770 405366763 405366766 518178745 518178646 405366764 405366771 405366768 185720528"/>
		</vehicle>
		<vehicle id="114" depart="88">
			<route edges="182456135 405367639 405367640 405367638 405367632 405367637 405367634 405366773 405366770 405366763 405366766 518178745 518178646 405366764 405366771 405366768 185720528"/>
		</vehicle>
		<vehicle id="115" depart="88">
			<route edges="182456135 405367639 405367640 405367638 405367632 405367637 405367634 405366773 405366770 405366763 405366766 518178745 518178646 405366764 405366771 405366768 185720528"/>
		</vehicle>
		<vehicle id="116" depart="89">
			<route edges="182456135 405367639 405367640 405367638 405367632 405367637 405367634 405366773 405366770 405366763 405366766 518178745 518178646 405366764 405366771 405366768 185720528"/>
		</vehicle>
		<vehicle id="117" depart="91">
			<route edges="182456135 405367639 405367640 405367638 405367632 405367637 405367634 405366773 405366770 405366763 405366766 518178745 518178646 405366764 405366771 405366768 185720528"/>
		</vehicle>
		<vehicle id="118" depart="92">
			<route edges="-185720528 -405366768 -405366771 518179568"/>
		</vehicle>
		<vehicle id="119" depart="92">
			<route edges="468917797.108 -405366768 -405366771 518179568"/>
		</vehicle>
		<vehicle id="120" depart="93">
			<route edges="182456135 405367639 405367640 405367638 405367632 405367637 405367634 405366773 405366770 405366763 405366766 518178745 518178646 405366764 518179568"/>
		</vehicle>
		<vehicle id="121" depart="96">
			<route edges="13400999 -182456135"/>
		</vehicle>
		<vehicle id="122" depart="98">
			<route edges="-185720528 -405366768 -405366771 -405366764 -518178646 -518178745 -405366766 -405366763 -405366770 -405366773 -405367634 -405367637 -405367632 -405367638 -405367640 -405367639 -182456135"/>
		</vehicle>
		<vehicle id="123" depart="98">
			<route edges="468917797.108 -405366768 -405366771 -405366764 -518178646 -518178745 -405366766 -405366763 -405366770 -405366773 -405367634 -405367637 -405367632 -405367638 -405367640 -405367639 -182456135"/>
		</vehicle>
		<vehicle id="124" depart="104">
			<route edges="468917797.108 -405366768 -405366771 -405366764 -518178646 -518178745 -405366766 -405366763 -405366770 -405366773 -405367634 -405367637 -405367632 -405367638 -405367640 -405367639 -182456135"/>
		</vehicle>
		<vehicle id="125" depart="106">
			<route edges="13400999 -182456135"/>
		</vehicle>
		<vehicle id="126" depart="108">
			<route edges="-185720528 -405366768 -405366771 508815234 482940996#1"/>
		</vehicle>
		<vehicle id="127" depart="108">
			<route edges="468917797.108 -405366768 -405366771 -405366764 -518178646 -518178745 -405366766 -405366763 -405366770 -405366773 -405367634 -405367637 -405367632 -405367638 -405367640 -405367639 -182456135"/>
		</vehicle>
		<vehicle id="128" depart="111">
			<route edges="468917797.108 -405366768 -405366771 -405366764 -518178646 -518178745 -405366766 -405366763 -405366770 -405366773 -405367634 -405367637 -405367632 -405367638 -405367640 -405367639 -182456135"/>
		</vehicle>
		<vehicle id="129" depart="115">
			<route edges="468917797.108 -405366768 -405366771 -405366764 -518178646 -518178745 -405366766 -405366763 -405366770 -405366773 -227078004"/>
		</vehicle>
		<vehicle id="130" depart="115">
			<route edges="468917797.108 -405366768 -405366771 -405366764 -518178646 -518178745 -405366766 -405366763 -405366770 -405366773 -405367634 -405367637 -405367632 -405367638 -405367640 -405367639 -182456135"/>
		</vehicle>
		<vehicle id="131" depart="117">
			<route edges="182456135 405367639 405367640 405367638 405367632 405367637 405367634 405366773 405366770 405366763 405366766 518178745 518178646 405366764 405366771 405366768 185720528"/>
		</vehicle>
		<vehicle id="132" depart="118">
			<route edges="468917797.108 -405366768 -405366771 518179568"/>
		</vehicle>
		<vehicle id="133" depart="120">
			<route edges="468917797.108 -405366768 -405366771 -405366764 -518178646 -518178745 -405366766 -405366763 -405366770 -405366773 -405367634 -405367637 -405367632 -405367638 -405367640 -405367639 -182456135"/>
		</vehicle>
		<vehicle id="134" depart="120">
			<route edges="468917797.108 185720528"/>
		</vehicle>
		<vehicle id="135" depart="122">
			<route edges="-185720528 -405366768 -405366771 518179568"/>
		</vehicle>
		<vehicle id="136" depart="122">
			<route edges="313036847 -405367634 -405367637 -405367632 -405367638 -405367640 -405367639 -182456135"/>
		</vehicle>
		<vehicle id="137" depart="122">
			<route edges="468917797.108 -405366768 -405366771 -405366764 -518178646 -518178745 -405366766 -405366763 -405366770 -405366773 -405367634 -405367637 -405367632 -405367638 -405367640 -405367639 -182456135"/>
		</vehicle>
		<vehicle id="138" depart="122">
			<route edges="468917797.108 185720528"/>
		</vehicle>
		<vehicle id="139" depart="124">
			<route edges="182456135 405367639 405367640 405367638 405367632 405367637 405367634 405366773 405366770 405366763 405366766 518178745 518178646 405366764 405366771 405366768 185720528"/>
		</vehicle>
		<vehicle id="140" depart="124">
			<route edges="182456135 405367639 405367640 405367638 405367632 405367637 405367634 405366773 405366770 405366763 405366766 518178745 518178646 405366764 405366771 405366768 185720528"/>
		</vehicle>
		<vehicle id="141" depart="125">
			<route edges="468917797.108 -405366768 -405366771 518179568"/>
		</vehicle>
		<vehicle id="142" depart="128">
			<route edges="182456135 405367639 405367640 405367638 405367632 405367637 405367634 405366773 405366770 405366763 405366766 518178745 518178646 405366764 405366771 405366768 185720528"/>
		</vehicle>
		<vehicle id="143" depart="128">
			<route edges="182456135 405367639 405367640 405367638 405367632 405367637 405367634 405366773 405366770 405366763 405366766 518178745 518178646 405366764 405366771 405366768 185720528"/>
		</vehicle>
		<vehicle id="144" depart="128">