<?xml version="1.0" encoding="utf-8"?>
	<routes xmlns:xsi="http://www.w3.org/2001/XMLSchema-instance" xsi:noNamespaceSchemaLocation="http://sumo.dlr.de/xsd/routes_file.xsd">
		<vType id="pkw" length="5.0" width="2.0" minGap="2.5" maxSpeed="11.111" accel="2.0" decel="4.5"/>
		<vehicle id="0" depart="1">
			<route edges="-290405874#2 290405873#0"/>
		</vehicle>
		<vehicle id="1" depart="1">
			<route edges="-290405874#2 354587522#0 354587522#3 354587522#7 631653294#0 354587521#0"/>
		</vehicle>
		<vehicle id="2" depart="3">
			<route edges="-290405874#2 290405873#0"/>
		</vehicle>
		<vehicle id="3" depart="3">
			<route edges="-9247806#2 -354587522#2 -629278174#1"/>
		</vehicle>
		<vehicle id="4" depart="5">
			<route edges="-505912698#0 234013266#0 533146591"/>
		</vehicle>
		<vehicle id="5" depart="5">
			<route edges="290405872#0 354587522#0 354587522#3 354587522#7 631653294#0 354587521#0"/>
		</vehicle>
		<vehicle id="6" depart="6">
			<route edges="-290405874#2 290405873#0"/>
		</vehicle>
		<vehicle id="7" depart="7">
			<route edges="-505912698#0 234013266#0 533146591"/>
		</vehicle>
		<vehicle id="8" depart="8">
			<route edges="-290405874#2 290405873#0"/>
		</vehicle>
		<vehicle id="9" depart="8">
			<route edges="-505912698#0 234013266#0 533146591"/>
		</vehicle>
		<vehicle id="10" depart="8">
			<route edges="-533146591 -234013266#1 -631653295#2"/>
		</vehicle>
		<vehicle id="11" depart="8">
			<route edges="-533146591 -234013266#1 -631653295#2"/>
		</vehicle>
		<vehicle id="12" depart="8">
			<route edges="-533146591 -234013266#1 354587521#0"/>
		</vehicle>
		<vehicle id="13" depart="9">
			<route edges="-290405874#2 -629278174#1"/>
		</vehicle>
		<vehicle id="14" depart="9">
			<route edges="-9247806#2 -354587522#2 290405873#0"/>
		</vehicle>
		<vehicle id="15" depart="10">
			<route edges="-290405874#2 290405873#0"/>
		</vehicle>
		<vehicle id="16" depart="10">
			<route edges="-505912698#0 234013266#0 533146591"/>
		</vehicle>
		<vehicle id="17" depart="10">
			<route edges="-505912698#0 234013266#0 533146591"/>
		</vehicle>
		<vehicle id="18" depart="10">
			<route edges="-533146591 -234013266#1 -631653295#2"/>
		</vehicle>
		<vehicle id="19" depart="11">
			<route edges="-533146591 -234013266#1 -631653295#2"/>
		</vehicle>
		<vehicle id="20" depart="11">
			<route edges="290405872#0 354587522#0 354587522#3 354587522#7 -9246225#5"/>
		</vehicle>
		<vehicle id="21" depart="12">
			<route edges="-290405874#2 290405873#0"/>
		</vehicle>
		<vehicle id="22" depart="12">
			<route edges="-505912698#0 -631653294#2 -354587522#9 -354587522#6 -354587522#2 -629278174#1"/>
		</vehicle>
		<vehicle id="23" depart="12">
			<route edges="354587523 290405874#0"/>
		</vehicle>
		<vehicle id="24" depart="12">
			<route edges="9246225#4 198659569#0"/>
		</vehicle>
		<vehicle id="25" depart="13">
			<route edges="-290405874#2 290405873#0"/>
		</vehicle>
		<vehicle id="26" depart="13">
			<route edges="-505912698#0 234013266#0 533146591"/>
		</vehicle>
		<vehicle id="27" depart="13">
			<route edges="-505912698#0 234013266#0 533146591"/>
		</vehicle>
		<vehicle id="28" depart="13">
			<route edges="-533146591 -234013266#1 354587521#0"/>
		</vehicle>
		<vehicle id="29" depart="13">
			<route edges="-533146591 -234013266#1 -631653295#2"/>
		</vehicle>
		<vehicle id="30" depart="13">
			<route edges="-533146591 -234013266#1 -631653295#2"/>
		</vehicle>
		<vehicle id="31" depart="13">
			<route edges="-9247806#2 -354587522#2 290405873#0"/>
		</vehicle>
		<vehicle id="32" depart="13">
			<route edges="290405872#0 -629278174#1"/>
		</vehicle>
		<vehicle id="33" depart="13">
			<route edges="9258925#0 611582485#0"/>
		</vehicle>
		<vehicle id="34" depart="13">
			<route edges="9258925#0 611582485#0"/>
		</vehicle>
		<vehicle id="35" depart="14">
			<route edges="-290405874#2 -629278174#1"/>
		</vehicle>
		<vehicle id="36" depart="14">
			<route edges="-505912698#0 -631653294#2 198659569#0"/>
		</vehicle>
		<vehicle id="37" depart="14">
			<route edges="290405872#0 290405874#0"/>
		</vehicle>
		<vehicle id="38" depart="15">
			<route edges="-290405874#2 290405873#0"/>
		</vehicle>
		<vehicle id="39" depart="15">
			<route edges="-533146591 -234013266#1 -631653295#2"/>
		</vehicle>
		<vehicle id="40" depart="15">
			<route edges="-533146591 -234013266#1 -631653295#2"/>
		</vehicle>
		<vehicle id="41" depart="16">
			<route edges="-354587521#1 -631653294#2 -354587522#9 -354587522#6 -354587522#2 -629278174#1"/>
		</vehicle>
		<vehicle id="42" depart="16">
			<route edges="290405872#0 290405874#0"/>
		</vehicle>
		<vehicle id="43" depart="17">
			<route edges="-290405874#2 -629278174#1"/>
		</vehicle>
		<vehicle id="44" depart="17">
			<route edges="-533146591 -234013266#1 -631653295#2"/>
		</vehicle>
		<vehicle id="45" depart="18">
			<route edges="-354587521#1 -631653294#2 -354587522#9 -354587522#6 -354587522#2 -629278174#1"/>
		</vehicle>
		<vehicle id="46" depart="18">
			<route edges="-505912698#0 234013266#0 533146591"/>
		</vehicle>
		<vehicle id="47" depart="18">
			<route edges="290405872#0 290405874#0"/>
		</vehicle>
		<vehicle id="48" depart="19">
			<route edges="-533146591 -234013266#1 -631653295#2"/>
		</vehicle>
		<vehicle id="49" depart="19">
			<route edges="290405872#0 290405874#0"/>
		</vehicle>
		<vehicle id="50" depart="19">
			<route edges="9246225#4 631653294#0 -631653295#2"/>
		</vehicle>
		<vehicle id="51" depart="19">
			<route edges="9258925#0 354587522#7 631653294#0 -631653295#2"/>
		</vehicle>
		<vehicle id="52" depart="20">
			<route edges="290405872#0 -629278174#1"/>
		</vehicle>
		<vehicle id="53" depart="20">
			<route edges="290405872#0 290405874#0"/>
		</vehicle>
		<vehicle id="54" depart="20">
			<route edges="290405872#0 290405874#0"/>
		</vehicle>
		<vehicle id="55" depart="21">
			<route edges="-354587521#1 -631653295#2"/>
		</vehicle>
		<vehicle id="56" depart="21">
			<route edges="-533146591 -234013266#1 -631653295#2"/>
		</vehicle>
		<vehicle id="57" depart="21">
			<route edges="-533146591 -234013266#1 -631653295#2"/>
		</vehicle>
		<vehicle id="58" depart="21">
			<route edges="9246225#4 631653294#0 234013266#0 533146591"/>
		</vehicle>
		<vehicle id="59" depart="22">
			<route edges="-533146591 -234013266#1 -631653295#2"/>
		</vehicle>
		<vehicle id="60" depart="23">
			<route edges="-354587521#1 -631653294#2 -354587522#9 -354587522#6 -354587522#2 -629278174#1"/>
		</vehicle>
		<vehicle id="61" depart="23">
			<route edges="-354587521#1 -631653294#2 -354587522#9 -354587522#6 -354587522#2 -629278174#1"/>
		</vehicle>
		<vehicle id="62" depart="23">
			<route edges="-354587521#1 -631653294#2 -354587522#9 -354587522#6 9247806#0"/>
		</vehicle>
		<vehicle id="63" depart="23">
			<route edges="-354587521#1 -631653294#2 -354587522#9 -354587522#6 -354587522#2 -629278174#1"/>
		</vehicle>
		<vehicle id="64" depart="23">
			<route edges="-354587521#1 -631653294#2 -9246225#5"/>
		</vehicle>
		<vehicle id="65" depart="23">
			<route edges="-354587521#1 -631653294#2 -9246225#5"/>
		</vehicle>
		<vehicle id="66" depart="24">
			<route edges="290405872#0 -629278174#1"/>
		</vehicle>
		<vehicle id="67" depart="26">
			<route edges="-354587521#1 -631653295#2"/>
		</vehicle>
		<vehicle id="68" depart="26">
			<route edges="-533146591 -234013266#1 -631653295#2"/>
		</vehicle>
		<vehicle id="69" depart="26">
			<route edges="354587523 290405874#0"/>
		</vehicle>
		<vehicle id="70" depart="26">
			<route edges="9246225#4 631653294#0 -631653295#2"/>
		</vehicle>
		<vehicle id="71" depart="26">
			<route edges="9246225#4 631653294#0 234013266#0 533146591"/>
		</vehicle>
		<vehicle id="72" depart="27">
			<route edges="290405872#0 290405874#0"/>
		</vehicle>
		<vehicle id="73" depart="27">
			<route edges="290405872#0 -629278174#1"/>
		</vehicle>
		<vehicle id="74" depart="27">
			<route edges="354587523 354587522#0 354587522#3 354587522#7 631653294#0 354587521#0"/>
		</vehicle>
		<vehicle id="75" depart="27">
			<route edges="9246225#4 631653294#0 -631653295#2"/>
		</vehicle>
		<vehicle id="76" depart="28">
			<route edges="290405872#0 -629278174#1"/>
		</vehicle>
		<vehicle id="77" depart="29">
			<route edges="290405872#0 290405874#0"/>
		</vehicle>
		<vehicle id="78" depart="29">
			<route edges="9246225#4 631653294#0 354587521#0"/>
		</vehicle>
		<vehicle id="79" depart="30">
			<route edges="-533146591 -234013266#1 354587521#0"/>
		</vehicle>
		<vehicle id="80" depart="30">
			<route edges="354587523 290405874#0"/>
		</vehicle>
		<vehicle id="81" depart="31">
			<route edges="290405872#0 290405874#0"/>
		</vehicle>
		<vehicle id="82" depart="32">
			<route edges="-354587521#1 -631653294#2 -354587522#9 -354587522#6 -354587522#2 290405873#0"/>
		</vehicle>
		<vehicle id="83" depart="32">
			<route edges="-354587521#1 -631653294#2 -354587522#9 -354587522#6 -354587522#2 -629278174#1"/>
		</vehicle>
		<vehicle id="84" depart="32">
			<route edges="-533146591 -234013266#1 354587521#0"/>
		</vehicle>
		<vehicle id="85" depart="32">
			<route edges="-533146591 -234013266#1 -631653295#2"/>
		</vehicle>
		<vehicle id="86" depart="32">
			<route edges="354587523 290405874#0"/>
		</vehicle>
		<vehicle id="87" depart="33">
			<route edges="-354587521#1 234013266#0 533146591"/>
		</vehicle>
		<vehicle id="88" depart="33">
			<route edges="-505912698#0 234013266#0 533146591"/>
		</vehicle>
		<vehicle id="89" depart="33">
			<route edges="9246225#4 631653294#0 -631653295#2"/>
		</vehicle>
		<vehicle id="90" depart="34">
			<route edges="354587523 290405873#0"/>
		</vehicle>
		<vehicle id="91" depart="35">
			<route edges="354587523 290405874#0"/>
		</vehicle>
		<vehicle id="92" depart="36">
			<route edges="-290405874#2 -629278174#1"/>
		</vehicle>
		<vehicle id="93" depart="36">
			<route edges="-533146591 -234013266#1 -631653295#2"/>
		</vehicle>
		<vehicle id="94" depart="38">
			<route edges="354587523 290405874#0"/>
		</vehicle>
		<vehicle id="95" depart="41">
			<route edges="-354587521#1 -631653294#2 -354587522#9 -354587522#6 -354587522#2 -629278174#1"/>
		</vehicle>
		<vehicle id="96" depart="42">
			<route edges="-290405874#2 290405873#0"/>
		</vehicle>
		<vehicle id="97" depart="42">
			<route edges="-354587521#1 -631653294#2 -354587522#9 -354587522#6 -354587522#2 -629278174#1"/>
		</vehicle>
		<vehicle id="98" depart="42">
			<route edges="290405872#0 290405874#0"/>
		</vehicle>
		<vehicle id="99" depart="42">
			<route edges="354587523 354587522#0 354587522#3 354587522#7 631653294#0 354587521#0"/>
		</vehicle>
		<vehicle id="100" depart="44">
			<route edges="-290405874#2 290405873#0"/>
		</vehicle>
		<vehicle id="101" depart="44">
			<route edges="-290405874#2 -629278174#1"/>
		</vehicle>
		<vehicle id="102" depart="45">
			<route edges="-290405874#2 290405873#0"/>
		</vehicle>
		<vehicle id="103" depart="46">
			<route edges="-354587521#1 -631653294#2 -354587522#9 -354587522#6 -354587522#2 -629278174#1"/>
		</vehicle>
		<vehicle id="104" depart="46">
			<route edges="354587523 290405874#0"/>
		</vehicle>
		<vehicle id="105" depart="47">
			<route edges="-290405874#2 290405873#0"/>
		</vehicle>
		<vehicle id="106" depart="47">
			<route edges="-354587521#1 -631653294#2 -354587522#9 611582485#0"/>
		</vehicle>
		<vehicle id="107" depart="48">
			<route edges="9246225#4 198659569#0"/>
		</vehicle>
		<vehicle id="108" depart="49">
			<route edges="-290405874#2 290405873#0"/>
		</vehicle>
		<vehicle id="109" depart="49">
			<route edges="-354587521#1 -631653294#2 -354587522#9 -9258925#3"/>
		</vehicle>
		<vehicle id="110" depart="49">
			<route edges="-354587521#1 234013266#0 533146591"/>
		</vehicle>
		<vehicle id="111" depart="50">
			<route edges="-290405874#2 -629278174#1"/>
		</vehicle>
		<vehicle id="112" depart="50">
			<route edges="290405872#0 290405874#0"/>
		</vehicle>
		<vehicle id="113" depart="52">
			<route edges="-290405874#2 290405873#0"/>
		</vehicle>
		<vehicle id="114" depart="52">
			<route edges="-354587521#1 -631653294#2 -354587522#9 -354587522#6 9247806#0"/>
		</vehicle>
		<vehicle id="115" depart="52">
			<route edges="290405872#0 354587522#0 354587522#3 354587522#7 631653294#0 354587521#0"/>
		</vehicle>
		<vehicle id="116" depart="53">
			<route edges="354587523 290405873#0"/>
		</vehicle>
		<vehicle id="117" depart="55">
			<route edges="290405872#0 -629278174#1"/>
		</vehicle>
		<vehicle id="118" depart="56">
			<route edges="-354587521#1 -631653294#2 -354587522#9 -354587522#6 -354587522#2 -629278174#1"/>
		</vehicle>
		<vehicle id="119" depart="56">
			<route edges="-533146591 -234013266#1 354587521#0"/>
		</vehicle>
		<vehicle id="120" depart="56">
			<route edges="-9247806#2 354587522#3 354587522#7 631653294#0 354587521#0"/>
		</vehicle>
		<vehicle id="121" depart="56">
			<route edges="290405872#0 290405874#0"/>
		</vehicle>
		<vehicle id="122" depart="56">
			<route edges="290405872#0 354587522#0 354587522#3 354587522#7 631653294#0 354587521#0"/>
		</vehicle>
		<vehicle id="123" depart="57">
			<route edges="354587523 354587522#0 354587522#3 354587522#7 631653294#0 354587521#0"/>
		</vehicle>
		<vehicle id="124" depart="58">
			<route edges="-9247806#2 -354587522#2 -629278174#1"/>
		</vehicle>
		<vehicle id="125" depart="61">
			<route edges="-354587521#1 -631653294#2 -354587522#9 -354587522#6 -354587522#2 -629278174#1"/>
		</vehicle>
		<vehicle id="126" depart="61">
			<route edges="354587523 290405874#0"/>
		</vehicle>
		<vehicle id="127" depart="62">
			<route edges="-354587521#1 -631653294#2 -354587522#9 -354587522#6 -354587522#2 -629278174#1"/>
		</vehicle>
		<vehicle id="128" depart="62">
			<route edges="354587523 354587522#0 354587522#3 354587522#7 631653294#0 354587521#0"/>
		</vehicle>
		<vehicle id="129" depart="62">
			<route edges="354587523 354587522#0 354587522#3 354587522#7 631653294#0 -631653295#2"/>
		</vehicle>
		<vehicle id="130" depart="62">
			<route edges="354587523 290405873#0"/>
		</vehicle>
		<vehicle id="131" depart="64">
			<route edges="-354587521#1 -631653294#2 -9246225#5"/>
		</vehicle>
		<vehicle id="132" depart="65">
			<route edges="354587523 290405874#0"/>
		</vehicle>
		<vehicle id="133" depart="65">
			<route edges="354587523 354587522#0 354587522#3 354587522#7 631653294#0 354587521#0"/>
		</vehicle>
		<vehicle id="134" depart="66">
			<route edges="354587523 354587522#0 354587522#3 354587522#7 631653294#0 354587521#0"/>
		</vehicle>
		<vehicle id="135" depart="68">
			<route edges="-354587521#1 234013266#0 533146591"/>
		</vehicle>
		<vehicle id="136" depart="68">
			<route edges="354587523 354587522#0 354587522#3 354587522#7 631653294#0 234013266#0 533146591"/>
		</vehicle>
		<vehicle id="137" depart="70">
			<route edges="-354587521#1 -631653294#2 -354587522#9 -354587522#6 -354587522#2 -629278174#1"/>
		</vehicle>
		<vehicle id="138" depart="70">
			<route edges="-354587521#1 -631653295#2"/>
		</vehicle>
		<vehicle id="139" depart="70">
			<route edges="354587523 290405874#0"/>
		</vehicle>
		<vehicle id="140" depart="70">
			<route edges="354587523 290405874#0"/>
		</vehicle>
		<vehicle id="141" depart="71">
			<route edges="-354587521#1 -631653294#2 -354587522#9 -354587522#6 -354587522#2 -629278174#1"/>
		</vehicle>
		<vehicle id="142" depart="71">
			<route edges="-9247806#2 -354587522#2 -629278174#1"/>
		</vehicle>
		<vehicle id="143" depart="71">
			<route edges="9246225#4 631653294#0 354587521#0"/>
		</vehicle>
		<vehicle id="144" depart="71">
			<route edges="9258925#0 354587522#7 631653294#0 354587521#0"/>
		</vehicle>
		<vehicle id="145" depart="74">
			<route edges="-354587521#1 -631653294#2 -354587522#9 -354587522#6 -354587522#2 -629278174#1"/>
		</vehicle>
		<vehicle id="146" depart="74">
			<route edges="-533146591 -234013266#1 -631653294#2 -9246225#5"/>
		</vehicle>
		<vehicle id="147" depart="75">
			<route edges="354587523 354587522#0 354587522#3 354587522#7 631653294#0 354587521#0"/>
		</vehicle>
		<vehicle id="148" depart="75">
			<route edges="354587523 354587522#0 9247806#0"/>
		</vehicle>
		<vehicle id="149" depart="77">
			<route edges="-354587521#1 -631653294#2 -354587522#9 -354587522#6 -354587522#2 -629278174#1"/>
		</vehicle>
		<vehicle id="150" depart="77">
			<route edges="-533146591 -234013266#1 354587521#0"/>
		</vehicle>
		<vehicle id="151" depart="77">
			<route edges="354587523 354587522#0 354587522#3 354587522#7 631653294#0 -631653295#2"/>
		</vehicle>
		<vehicle id="152" depart="78">
			<route edges="290405872#0 290405874#0"/>
		</vehicle>
		<vehicle id="153" depart="79">
			<route edges="-533146591 -234013266#1 -631653294#2 -354587522#9 -354587522#6 -354587522#2 -629278174#1"/>
		</vehicle>
		<vehicle id="154" depart="80">
			<route edges="-354587521#1 -631653294#2 -354587522#9 -354587522#6 -354587522#2 -629278174#1"/>
		</vehicle>
		<vehicle id="155" depart="80">
			<route edges="-354587521#1 -631653294#2 -354587522#9 -354587522#6 -354587522#2 -629278174#1"/>
		</vehicle>
		<vehicle id="156" depart="81">
			<route edges="290405872#0 290405874#0"/>
		</vehicle>
		<vehicle id="157" depart="81">
			<route edges="354587523 -629278174#1"/>
		</vehicle>
		<vehicle id="158" depart="82">
			<route edges="354587523 354587522#0 354587522#3 354587522#7 631653294#0 354587521#0"/>
		</vehicle>
		<vehicle id="159" depart="83">
			<route edges="290405872#0 290405874#0"/>
		</vehicle>
		<vehicle id="160" depart="84">
			<route edges="-354587521#1 -631653294#2 -354587522#9 -354587522#6 -354587522#2 -629278174#1"/>
		</vehicle>
		<vehicle id="161" depart="84">
			<route edges="-533146591 -234013266#1 -631653295#2"/>
		</vehicle>
		<vehicle id="162" depart="85">
			<route edges="-533146591 -234013266#1 -631653295#2"/>
		</vehicle>
		<vehicle id="163" depart="85">
			<route edges="290405872#0 -629278174#1"/>
		</vehicle>
		<vehicle id="164" depart="86">
			<route edges="-354587521#1 -631653294#2 -354587522#9 -354587522#6 -354587522#2 290405873#0"/>
		</vehicle>
		<vehicle id="165" depart="86">
			<route edges="-354587521#1 -631653294#2 -354587522#9 -354587522#6 -354587522#2 -629278174#1"/>
		</vehicle>
		<vehicle id="166" depart="86">
			<route edges="290405872#0 290405874#0"/>
		</vehicle>
		<vehicle id="167" depart="86">
			<route edges="290405872#0 354587522#0 9247806#0"/>
		</vehicle>
		<vehicle id="168" depart="87">
			<route edges="-533146591 -234013266#1 -631653295#2"/>
		</vehicle>
		<vehicle id="169" depart="87">
			<route edges="290405872#0 -629278174#1"/>
		</vehicle>
		<vehicle id="170" depart="87">
			<route edges="354587523 290405873#0"/>
		</vehicle>
		<vehicle id="171" depart="88">
			<route edges="-505912698#0 234013266#0 533146591"/>
		</vehicle>
		<vehicle id="172" depart="88">
			<route edges="290405872#0 290405874#0"/>
		</vehicle>
		<vehicle id="173" depart="88">
			<route edges="354587523 354587522#0 354587522#3 354587522#7 631653294#0 354587521#0"/>
		</vehicle>
		<vehicle id="174" depart="89">
			<route edges="-290405874#2 290405873#0"/>
		</vehicle>
		<vehicle id="175" depart="89">
			<route edges="-290405874#2 -629278174#1"/>
		</vehicle>
		<vehicle id="176" depart="89">
			<route edges="290405872#0 -629278174#1"/>
		</vehicle>
		<vehicle id="177" depart="90">
			<route edges="-505912698#0 354587521#0"/>
		</vehicle>
		<vehicle id="178" depart="90">
			<route edges="-505912698#0 -631653294#2 -354587522#9 -354587522#6 -354587522#2 -629278174#1"/>
		</vehicle>
		<vehicle id="179" depart="90">
			<route edges="-533146591 -234013266#1 -631653295#2"/>
		</vehicle>
		<vehicle id="180" depart="90">
			<route edges="290405872#0 354587522#0 354587522#3 354587522#7 631653294#0 234013266#0 533146591"/>
		</vehicle>
		<vehicle id="181" depart="90">
			<route edges="354587523 354587522#0 354587522#3 354587522#7 631653294#0 354587521#0"/>
		</vehicle>
		<vehicle id="182" depart="91">
			<route edges="-354587521#1 -631653294#2 -354587522#9 -354587522#6 -354587522#2 -629278174#1"/>
		</vehicle>
		<vehicle id="183" depart="91">
			<route edges="-533146591 -234013266#1 -631653294#2 -354587522#9 -354587522#6 -354587522#2 -629278174#1"/>
		</vehicle>
		<vehicle id="184" depart="91">
			<route edges="290405872#0 290405874#0"/>
		</vehicle>
		<vehicle id="185" depart="91">
			<route edges="354587523 354587522#0 354587522#3 354587522#7 631653294#0 354587521#0"/>
		</vehicle>
		<vehicle id="186" depart="92">
			<route edges="-290405874#2 290405873#0"/>
		</vehicle>
		<vehicle id="187" depart="92">
			<route edges="-290405874#2 -629278174#1"/>
		</vehicle>
		<vehicle id="188" depart="92">
			<route edges="-505912698#0 234013266#0 533146591"/>
		</vehicle>
		<vehicle id="189" depart="92">
			<route edges="354587523 354587522#0 354587522#3 354587522#7 631653294#0 -631653295#2"/>
		</vehicle>
		<vehicle id="190" depart="93">
			<route edges="-290405874#2 354587522#0 354587522#3 -9258925#3"/>
		</vehicle>
		<vehicle id="191" depart="93">
			<route edges="-505912698#0 354587521#0"/>
		</vehicle>
		<vehicle id="192" depart="93">
			<route edges="290405872#0 354587522#0 354587522#3 354587522#7 631653294#0 354587521#0"/>
		</vehicle>
		<vehicle id="193" depart="93">
			<route edges="9246225#4 631653294#0 354587521#0"/>
		</vehicle>
		<vehicle id="194" depart="94">
			<route edges="-290405874#2 290405873#0"/>
		</vehicle>
		<vehicle id="195" depart="94">
			<route edges="-505912698#0 354587521#0"/>
		</vehicle>
		<vehicle id="196" depart="94">
			<route edges="-505912698#0 234013266#0 533146591"/>
		</vehicle>
		<vehicle id="197" depart="94">
			<route edges="354587523 354587522#0 354587522#3 354587522#7 631653294#0 234013266#0 533146591"/>
		</vehicle>
		<vehicle id="198" depart="94">
			<route edges="9258925#0 -354587522#6 -354587522#2 290405873#0"/>
		</vehicle>
		<vehicle id="199" depart="95">
			<route edges="-290405874#2 -629278174#1"/>
		</vehicle>
		<vehicle id="200" depart="95">
			<route edges="-354587521#1 -631653294#2 -354587522#9 -354587522#6 -354587522#2 -629278174#1"/>
		</vehicle>
		<vehicle id="201" depart="95">
			<route edges="-505912698#0 234013266#0 533146591"/>
		</vehicle>
		<vehicle id="202" depart="95">
			<route edges="-533146591 -234013266#1 -631653294#2 -354587522#9 -354587522#6 -354587522#2 290405874#0"/>
		</vehicle>
		<vehicle id="203" depart="96">
			<route edges="-505912698#0 354587521#0"/>
		</vehicle>
		<vehicle id="204" depart="96">
			<route edges="-505912698#0 -631653294#2 -9246225#5"/>
		</vehicle>
		<vehicle id="205" depart="96">
			<route edges="-9247806#2 -354587522#2 -629278174#1"/>
		</vehicle>
		<vehicle id="206" depart="96">
			<route edges="290405872#0 290405874#0"/>
		</vehicle>
		<vehicle id="207" depart="97">
			<route edges="-290405874#2 290405873#0"/>
		</vehicle>
		<vehicle id="208" depart="98">
			<route edges="290405872#0 290405874#0"/>
		</vehicle>
		<vehicle id="209" depart="99">
			<route edges="-198659569#3 -9246225#5"/>
		</vehicle>
		<vehicle id="210" depart="99">
			<route edges="-505912698#0 -631653294#2 -354587522#9 -354587522#6 -354587522#2 -629278174#1"/>
		</vehicle>
		<vehicle id="211" depart="100">
			<route edges="-505912698#0 234013266#0 533146591"/>
		</vehicle>
		<vehicle id="212" depart="100">
			<route edges="-533146591 -234013266#1 -631653295#2"/>
		</vehicle>
		<vehicle id="213" depart="100">
			<route edges="9258925#0 611582485#0"/>
		</vehicle>
		<vehicle id="214" depart="101">
			<route edges="-505912698#0 234013266#0 533146591"/>
		</vehicle>
		<vehicle id="215" depart="101">
			<route edges="-505912698#0 -631653295#2"/>
		</vehicle>
		<vehicle id="216" depart="101">
			<route edges="-533146591 -234013266#1 -631653295#2"/>
		</vehicle>
		<vehicle id="217" depart="101">
			<route edges="290405872#0 290405874#0"/>
		</vehicle>
		<vehicle id="218" depart="101">
			<route edges="354587523 354587522#0 354587522#3 354587522#7 631653294#0 354587521#0"/>
		</vehicle>
		<vehicle id="219" depart="102">
			<route edges="-198659569#3 -9246225#5"/>
		</vehicle>
		<vehicle id="220" depart="102">
			<route edges="-505912698#0 234013266#0 533146591"/>
		</vehicle>
		<vehicle id="221" depart="102">
			<route edges="-505912698#0 -631653294#2 -354587522#9 -354587522#6 -354587522#2 -629278174#1"/>
		</vehicle>
		<vehicle id="222" depart="102">
			<route edges="-533146591 -234013266#1 -631653295#2"/>
		</vehicle>
		<vehicle id="223" depart="102">
			<route edges="-533146591 -234013266#1 -631653295#2"/>
		</vehicle>
		<vehicle id="224" depart="102">
			<route edges="9258925#0 611582485#0"/>
		</vehicle>
		<vehicle id="225" depart="103">
			<route edges="-290405874#2 354587522#0 354587522#3 354587522#7 631653294#0 234013266#0 533146591"/>
		</vehicle>
		<vehicle id="226" depart="103">
			<route edges="-505912698#0 234013266#0 533146591"/>
		</vehicle>
		<vehicle id="227" depart="103">
			<route edges="-533146591 -234013266#1 -631653295#2"/>
		</vehicle>
		<vehicle id="228" depart="103">
			<route edges="-533146591 -234013266#1 354587521#0"/>
		</vehicle>
		<vehicle id="229" depart="103">
			<route edges="-533146591 -234013266#1 354587521#0"/>
		</vehicle>
		<vehicle id="230" depart="103">
			<route edges="290405872#0 -629278174#1"/>
		</vehicle>
		<vehicle id="231" depart="104">
			<route edges="-505912698#0 234013266#0 533146591"/>
		</vehicle>
		<vehicle id="232" depart="104">
			<route edges="290405872#0 290405874#0"/>
		</vehicle>
		<vehicle id="233" depart="105">
			<route edges="-505912698#0 234013266#0 533146591"/>
		</vehicle>
		<vehicle id="234" depart="105">
			<route edges="-505912698#0 234013266#0 533146591"/>
		</vehicle>
		<vehicle id="235" depart="105">
			<route edges="-505912698#0 234013266#0 533146591"/>
		</vehicle>
		<vehicle id="236" depart="105">
			<route edges="-533146591 -234013266#1 -631653295#2"/>
		</vehicle>
		<vehicle id="237" depart="105">
			<route edges="-533146591 -234013266#1 -631653295#2"/>
		</vehicle>
		<vehicle id="238" depart="105">
			<route edges="-533146591 -234013266#1 -631653295#2"/>
		</vehicle>
		<vehicle id="239" depart="105">
			<route edges="9246225#4 631653294#0 -631653295#2"/>
		</vehicle>
		<vehicle id="240" depart="106">
			<route edges="354587523 354587522#0 354587522#3 354587522#7 631653294#0 354587521#0"/>
		</vehicle>
		<vehicle id="241" depart="107">
			<route edges="-533146591 -234013266#1 -631653295#2"/>
		</vehicle>
		<vehicle id="242" depart="108">
			<route edges="-290405874#2 290405873#0"/>
		</vehicle>
		<vehicle id="243" depart="108">
			<route edges="-505912698#0 234013266#0 533146591"/>
		</vehicle>
		<vehicle id="244" depart="108">
			<route edges="-505912698#0 -631653294#2 -354587522#9 -354587522#6 -354587522#2 -629278174#1"/>
		</vehicle>
		<vehicle id="245" depart="108">
			<route edges="-533146591 -234013266#1 -631653295#2"/>
		</vehicle>
		<vehicle id="246" depart="108">
			<route edges="290405872#0 354587522#0 354587522#3 354587522#7 631653294#0 354587521#0"/>
		</vehicle>
		<vehicle id="247" depart="108">
			<route edges="354587523 354587522#0 9247806#0"/>
		</vehicle>
		<vehicle id="248" depart="109">
			<route edges="-505912698#0 234013266#0 533146591"/>
		</vehicle>
		<vehicle id="249" depart="109">
			<route edges="354587523 354587522#0 354587522#3 354587522#7 631653294#0 354587521#0"/>
		</vehicle>
		<vehicle id="250" depart="110">
			<route edges="-505912698#0 -631653295#2"/>
		</vehicle>
		<vehicle id="251" depart="110">
			<route edges="-505912698#0 234013266#0 533146591"/>
		</vehicle>
		<vehicle id="252" depart="110">
			<route edges="-533146591 -234013266#1 -631653295#2"/>
		</vehicle>
		<vehicle id="253" depart="110">
			<route edges="290405872#0 290405874#0"/>
		</vehicle>
		<vehicle id="254" depart="110">
			<route edges="354587523 290405874#0"/>
		</vehicle>
		<vehicle id="255" depart="110">
			<route edges="9246225#4 631653294#0 -631653295#2"/>
		</vehicle>
		<vehicle id="256" depart="111">
			<route edges="-505912698#0 354587521#0"/>
		</vehicle>
		<vehicle id="257" depart="111">
			<route edges="-505912698#0 -631653294#2 -354587522#9 -354587522#6 -354587522#2 -629278174#1"/>
		</vehicle>
		<vehicle id="258" depart="111">
			<route edges="-505912698#0 234013266#0 533146591"/>
		</vehicle>
		<vehicle id="259" depart="112">
			<route edges="-198659569#3 -9246225#5"/>
		</vehicle>
		<vehicle id="260" depart="112">
			<route edges="-505912698#0 234013266#0 533146591"/>
		</vehicle>
		<vehicle id="261" depart="112">
			<route edges="-533146591 -234013266#1 -631653295#2"/>
		</vehicle>
		<vehicle id="262" depart="112">
			<route edges="290405872#0 -629278174#1"/>
		</vehicle>
		<vehicle id="263" depart="112">
			<route edges="290405872#0 290405874#0"/>
		</vehicle>
		<vehicle id="264" depart="112">
			<route edges="354587523 290405874#0"/>
		</vehicle>
		<vehicle id="265" depart="113">
			<route edges="-505912698#0 234013266#0 533146591"/>
		</vehicle>
		<vehicle id="266" depart="113">
			<route edges="-533146591 -234013266#1 -631653295#2"/>
		</vehicle>
		<vehicle id="267" depart="114">
			<route edges="-533146591 -234013266#1 -631653295#2"/>
		</vehicle>
		<vehicle id="268" depart="115">
			<route edges="-505912698#0 234013266#0 533146591"/>
		</vehicle>
		<vehicle id="269" depart="115">
			<route edges="-533146591 -234013266#1 -631653294#2 -354587522#9 -354587522#6 -354587522#2 -629278174#1"/>
		</vehicle>
		<vehicle id="270" depart="115">
			<route edges="290405872#0 290405874#0"/>
		</vehicle>
		<vehicle id="271" depart="117">
			<route edges="-505912698#0 234013266#0 533146591"/>
		</vehicle>
		<vehicle id="272" depart="117">
			<route edges="290405872#0 290405874#0"/>
		</vehicle>
		<vehicle id="273" depart="118">
			<route edges="-505912698#0 234013266#0 533146591"/>
		</vehicle>
		<vehicle id="274" depart="118">
			<route edges="290405872#0 -629278174#1"/>
		</vehicle>
		<vehicle id="275" depart="119">
			<route edges="290405872#0 290405874#0"/>
		</vehicle>
		<vehicle id="276" depart="120">
			<route edges="290405872#0 -629278174#1"/>
		</vehicle>
		<vehicle id="277" depart="120">
			<route edges="9258925#0 611582485#0"/>
		</vehicle>
		<vehicle id="278" depart="121">