<?xml version="1.0" encoding="utf-8"?>
	<edges xmlns:xsi="http://www.w3.org/2001/XMLSchema-instance" xsi:noNamespaceSchemaLocation="http://sumo.dlr.de/xsd/edges_file.xsd">
		<edge id="-198659569#3" from="69227178" to="69227168" numLanes="1" speed="11.111" priority="-1"/>
		<edge id="-234013266#1" from="69538856" to="69515842" numLanes="2" speed="11.111" priority="-1"/>
		<edge id="-290405874#2" from="5198748651" to="69421277" numLanes="2" speed="11.111" priority="-1"/>
		<edge id="-354587521#1" from="69515841" to="69515842" numLanes="2" speed="11.111" priority="-1"/>
		<edge id="-354587522#2" from="69249210" to="69421277" numLanes="2" speed="11.111" priority="-1"/>
		<edge id="-354587522#6" from="69387071" to="69249210" numLanes="2" speed="11.111" priority="-1"/>
		<edge id="-354587522#9" from="69227168" to="69387071" numLanes="2" speed="11.111" priority="-1"/>
		<edge id="-505912698#0" from="69588600" to="69515842" numLanes="2" speed="11.111" priority="-1"/>
		<edge id="-533146591" from="69614527" to="69538856" numLanes="2" speed="11.111" priority="-1"/>
		<edge id="-611582485#3" from="69387078" to="69387071" numLanes="1" speed="11.111" priority="-1"/>
		<edge id="-629278174#1" from="69421277" to="2390850312" numLanes="2" speed="11.111" priority="-1"/>
		<edge id="-631653294#2" from="69515842" to="69227168" numLanes="2" speed="11.111" priority="-1"/>
		<edge id="-631653295#2" from="69515842" to="69588600" numLanes="2" speed="11.111" priority="-1"/>
		<edge id="-9246225#5" from="69227168" to="69227161" numLanes="1" speed="11.111" priority="-1"/>
		<edge id="-9247806#2" from="69249214" to="69249210" numLanes="1" speed="11.111" priority="-1"/>
		<edge id="-9258925#3" from="69387071" to="69387063" numLanes="1" speed="11.111" priority="-1"/>
		<edge id="198659569#0" from="69227168" to="69227178" numLanes="1" speed="11.111" priority="-1"/>
		<edge id="234013266#0" from="69515842" to="69538856" numLanes="2" speed="11.111" priority="-1"/>
		<edge id="290405872#0" from="69421271" to="69421277" numLanes="2" speed="11.111" priority="-1"/>
		<edge id="290405873#0" from="69421277" to="69421271" numLanes="2" speed="11.111" priority="-1"/>
		<edge id="290405874#0" from="69421277" to="5198748651" numLanes="3" speed="11.111" priority="-1"/>
		<edge id="354587521#0" from="69515842" to="69515841" numLanes="2" speed="11.111" priority="-1"/>
		<edge id="354587522#0" from="69421277" to="69249210" numLanes="2" speed="11.111" priority="-1"/>
		<edge id="354587522#3" from="69249210" to="69387071" numLanes="2" speed="11.111" priority="-1"/>
		<edge id="354587522#7" from="69387071" to="69227168" numLanes="2" speed="11.111" priority="-1"/>
		<edge id="354587523" from="2390850312" to="69421277" numLanes="2" speed="11.111" priority="-1"/>
		<edge id="533146591" from="69538856" to="69614527" numLanes="2" speed="11.111" priority="-1"/>
		<edge id="611582485#0" from="69387071" to="69387078" numLanes="1" speed="11.111" priority="-1"/>
		<edge id="631653294#0" from="69227168" to="69515842" numLanes="2" speed="11.111" priority="-1"/>
		<edge id="9246225#4" from="69227161" to="69227168" numLanes="1" speed="11.111" priority="-1"/>
		<edge id="9247806#0" from="69249210" to="69249214" numLanes="1" speed="11.111" priority="-1"/>
		<edge id="9258925#0" from="69387063" to="69387071" numLanes="1" speed="11.111" priority="-1"/>
	</edges>
