<?xml version="1.0" encoding="utf-8"?>
	<routes xmlns:xsi="http://www.w3.org/2001/XMLSchema-instance" xsi:noNamespaceSchemaLocation="http://sumo.dlr.de/xsd/routes_file.xsd">
		<vType id="pkw" length="5.0" width="2.0" minGap="2.5" maxSpeed="11.111" accel="2.0" decel="4.5"/>
		<vehicle id="0" depart="2">
			<route edges="road_2_1_2 road_1_1_2"/>
		</vehicle>
		<vehicle id="1" depart="7">
			<route edges="road_0_1_0 road_1_1_0"/>
		</vehicle>
		<vehicle id="2" depart="22">
			<route edges="road_1_0_1 road_1_1_1"/>
		</vehicle>
		<vehicle id="3" depart="24">
			<route edges="road_1_0_1 road_1_1_1"/>
		</vehicle>
		<vehicle id="4" depart="24">
			<route edges="road_1_0_1 road_1_1_2"/>
		</vehicle>
		<vehicle id="5" depart="24">
			<route edges="road_2_1_2 road_1_1_2"/>
		</vehicle>
		<vehicle id="6" depart="25">
			<route edges="road_0_1_0 road_1_1_0"/>
		</vehicle>
		<vehicle id="7" depart="27">
			<route edges="road_0_1_0 road_1_1_0"/>
		</vehicle>
		<vehicle id="8" depart="29">
			<route edges="road_0_1_0 road_1_1_0"/>
		</vehicle>
		<vehicle id="9" depart="36">
			<route edges="road_1_0_1 road_1_1_1"/>
		</vehicle>
		<vehicle id="10" depart="36">
			<route edges="road_1_0_1 road_1_1_2"/>
		</vehicle>
		<vehicle id="11" depart="57">
			<route edges="road_1_0_1 road_1_1_1"/>
		</vehicle>
		<vehicle id="12" depart="57">
			<route edges="road_0_1_0 road_1_1_0"/>
		</vehicle>
		<vehicle id="13" depart="68">
			<route edges="road_1_2_3 road_1_1_3"/>
		</vehicle>
		<vehicle id="14" depart="75">
			<route edges="road_1_0_1 road_1_1_1"/>
		</vehicle>
		<vehicle id="15" depart="83">
			<route edges="road_1_0_1 road_1_1_1"/>
		</vehicle>
		<vehicle id="16" depart="87">
			<route edges="road_1_0_1 road_1_1_1"/>
		</vehicle>
		<vehicle id="17" depart="92">
			<route edges="road_1_0_1 road_1_1_1"/>
		</vehicle>
		<vehicle id="18" depart="92">
			<route edges="road_1_0_1 road_1_1_2"/>
		</vehicle>
		<vehicle id="19" depart="95">
			<route edges="road_1_0_1 road_1_1_1"/>
		</vehicle>
		<vehicle id="20" depart="95">
			<route edges="road_1_0_1 road_1_1_1"/>
		</vehicle>
		<vehicle id="21" depart="113">
			<route edges="road_0_1_0 road_1_1_0"/>
		</vehicle>
		<vehicle id="22" depart="115">
			<route edges="road_2_1_2 road_1_1_2"/>
		</vehicle>
		<vehicle id="23" depart="117">
			<route edges="road_2_1_2 road_1_1_2"/>
		</vehicle>
		<vehicle id="24" depart="121">
			<route edges="road_2_1_2 road_1_1_2"/>
		</vehicle>
		<vehicle id="25" depart="126">
			<route edges="road_2_1_2 road_1_1_2"/>
		</vehicle>
		<vehicle id="26" depart="134">
			<route edges="road_2_1_2 road_1_1_2"/>
		</vehicle>
		<vehicle id="27" depart="134">
			<route edges="road_2_1_2 road_1_1_3"/>
		</vehicle>
		<vehicle id="28" depart="138">
			<route edges="road_1_0_1 road_1_1_1"/>
		</vehicle>
		<vehicle id="29" depart="153">
			<route edges="road_1_0_1 road_1_1_1"/>
		</vehicle>
		<vehicle id="30" depart="153">
			<route edges="road_1_0_1 road_1_1_2"/>
		</vehicle>
		<vehicle id="31" depart="165">
			<route edges="road_1_0_1 road_1_1_1"/>
		</vehicle>
		<vehicle id="32" depart="177">
			<route edges="road_1_2_3 road_1_1_3"/>
		</vehicle>
		<vehicle id="33" depart="181">
			<route edges="road_1_2_3 road_1_1_3"/>
		</vehicle>
		<vehicle id="34" depart="185">
			<route edges="road_1_0_1 road_1_1_1"/>
		</vehicle>
		<vehicle id="35" depart="188">
			<route edges="road_1_0_1 road_1_1_1"/>
		</vehicle>
		<vehicle id="36" depart="188">
			<route edges="road_1_0_1 road_1_1_2"/>
		</vehicle>
		<vehicle id="37" depart="239">
			<route edges="road_1_0_1 road_1_1_1"/>
		</vehicle>
		<vehicle id="38" depart="241">
			<route edges="road_2_1_2 road_1_1_2"/>
		</vehicle>
		<vehicle id="39" depart="253">
			<route edges="road_2_1_2 road_1_1_2"/>
		</vehicle>
		<vehicle id="40" depart="254">
			<route edges="road_1_0_1 road_1_1_1"/>
		</vehicle>
		<vehicle id="41" depart="255">
			<route edges="road_1_2_3 road_1_1_3"/>
		</vehicle>
		<vehicle id="42" depart="260">
			<route edges="road_1_0_1 road_1_1_1"/>
		</vehicle>
		<vehicle id="43" depart="260">
			<route edges="road_1_0_1 road_1_1_2"/>
		</vehicle>
		<vehicle id="44" depart="263">
			<route edges="road_1_0_1 road_1_1_1"/>
		</vehicle>
		<vehicle id="45" depart="263">
			<route edges="road_1_0_1 road_1_1_1"/>
		</vehicle>
		<vehicle id="46" depart="263">
			<route edges="road_1_0_1 road_1_1_2"/>
		</vehicle>
		<vehicle id="47" depart="265">
			<route edges="road_1_0_1 road_1_1_1"/>
		</vehicle>
		<vehicle id="48" depart="266">
			<route edges="road_2_1_2 road_1_1_2"/>
		</vehicle>
		<vehicle id="49" depart="267">
			<route edges="road_1_2_3 road_1_1_3"/>
		</vehicle>
		<vehicle id="50" depart="267">
			<route edges="road_1_2_3 road_1_1_0"/>
		</vehicle>
		<vehicle id="51" depart="275">
			<route edges="road_1_2_3 road_1_1_3"/>
		</vehicle>
		<vehicle id="52" depart="277">
			<route edges="road_0_1_0 road_1_1_0"/>
		</vehicle>
		<vehicle id="53" depart="277">
			<route edges="road_0_1_0 road_1_1_1"/>
		</vehicle>
		<vehicle id="54" depart="279">
			<route edges="road_1_0_1 road_1_1_1"/>
		</vehicle>
		<vehicle id="55" depart="279">
			<route edges="road_1_2_3 road_1_1_3"/>
		</vehicle>
		<vehicle id="56" depart="296">
			<route edges="road_1_0_1 road_1_1_1"/>
		</vehicle>
		<vehicle id="57" depart="298">
			<route edges="road_2_1_2 road_1_1_2"/>
		</vehicle>
		<vehicle id="58" depart="300">
			<route edges="road_1_0_1 road_1_1_1"/>
		</vehicle>
		<vehicle id="59" depart="301">
			<route edges="road_1_0_1 road_1_1_1"/>
		</vehicle>
		<vehicle id="60" depart="302">
			<route edges="road_2_1_2 road_1_1_2"/>
		</vehicle>
		<vehicle id="61" depart="303">
			<route edges="road_0_1_0 road_1_1_0"/>
		</vehicle>
		<vehicle id="62" depart="307">
			<route edges="road_1_0_1 road_1_1_1"/>
		</vehicle>
		<vehicle id="63" depart="328">
			<route edges="road_2_1_2 road_1_1_2"/>
		</vehicle>
		<vehicle id="64" depart="328">
			<route edges="road_2_1_2 road_1_1_3"/>
		</vehicle>
		<vehicle id="65" depart="335">
			<route edges="road_1_2_3 road_1_1_3"/>
		</vehicle>
		<vehicle id="66" depart="337">
			<route edges="road_0_1_0 road_1_1_0"/>
		</vehicle>
		<vehicle id="67" depart="349">
			<route edges="road_2_1_2 road_1_1_2"/>
		</vehicle>
		<vehicle id="68" depart="352">
			<route edges="road_1_0_1 road_1_1_1"/>
		</vehicle>
		<vehicle id="69" depart="364">
			<route edges="road_1_0_1 road_1_1_1"/>
		</vehicle>
		<vehicle id="70" depart="372">
			<route edges="road_1_0_1 road_1_1_1"/>
		</vehicle>
		<vehicle id="71" depart="372">
			<route edges="road_1_2_3 road_1_1_3"/>
		</vehicle>
		<vehicle id="72" depart="375">
			<route edges="road_1_2_3 road_1_1_3"/>
		</vehicle>
		<vehicle id="73" depart="378">
			<route edges="road_1_0_1 road_1_1_1"/>
		</vehicle>
		<vehicle id="74" depart="378">
			<route edges="road_1_0_1 road_1_1_2"/>
		</vehicle>
		<vehicle id="75" depart="387">
			<route edges="road_1_0_1 road_1_1_1"/>
		</vehicle>
		<vehicle id="76" depart="388">
			<route edges="road_1_0_1 road_1_1_1"/>
		</vehicle>
		<vehicle id="77" depart="390">
			<route edges="road_1_0_1 road_1_1_1"/>
		</vehicle>
		<vehicle id="78" depart="390">
			<route edges="road_1_0_1 road_1_1_2"/>
		</vehicle>
		<vehicle id="79" depart="397">
			<route edges="road_1_0_1 road_1_1_1"/>
		</vehicle>
		<vehicle id="80" depart="397">
			<route edges="road_1_0_1 road_1_1_1"/>
		</vehicle>
		<vehicle id="81" depart="404">
			<route edges="road_1_2_3 road_1_1_3"/>
		</vehicle>
		<vehicle id="82" depart="421">
			<route edges="road_1_0_1 road_1_1_1"/>
		</vehicle>
		<vehicle id="83" depart="430">
			<route edges="road_0_1_0 road_1_1_0"/>
		</vehicle>
		<vehicle id="84" depart="440">
			<route edges="road_1_0_1 road_1_1_1"/>
		</vehicle>
		<vehicle id="85" depart="445">
			<route edges="road_0_1_0 road_1_1_0"/>
		</vehicle>
		<vehicle id="86" depart="449">
			<route edges="road_0_1_0 road_1_1_0"/>
		</vehicle>
		<vehicle id="87" depart="450">
			<route edges="road_2_1_2 road_1_1_2"/>
		</vehicle>
		<vehicle id="88" depart="455">
			<route edges="road_2_1_2 road_1_1_2"/>
		</vehicle>
		<vehicle id="89" depart="458">
			<route edges="road_2_1_2 road_1_1_2"/>
		</vehicle>
		<vehicle id="90" depart="463">
			<route edges="road_2_1_2 road_1_1_2"/>
		</vehicle>
		<vehicle id="91" depart="466">
			<route edges="road_2_1_2 road_1_1_2"/>
		</vehicle>
		<vehicle id="92" depart="466">
			<route edges="road_2_1_2 road_1_1_3"/>
		</vehicle>
		<vehicle id="93" depart="466">
			<route edges="road_1_0_1 road_1_1_1"/>
		</vehicle>
		<vehicle id="94" depart="467">
			<route edges="road_1_0_1 road_1_1_1"/>
		</vehicle>
		<vehicle id="95" depart="469">
			<route edges="road_2_1_2 road_1_1_2"/>
		</vehicle>
		<vehicle id="96" depart="469">
			<route edges="road_1_0_1 road_1_1_1"/>
		</vehicle>
		<vehicle id="97" depart="469">
			<route edges="road_1_0_1 road_1_1_2"/>
		</vehicle>
		<vehicle id="98" depart="471">
			<route edges="road_2_1_2 road_1_1_2"/>
		</vehicle>
		<vehicle id="99" depart="471">
			<route edges="road_1_0_1 road_1_1_1"/>
		</vehicle>
		<vehicle id="100" depart="473">
			<route edges="road_0_1_0 road_1_1_0"/>
		</vehicle>
		<vehicle id="101" depart="474">
			<route edges="road_2_1_2 road_1_1_2"/>
		</vehicle>
		<vehicle id="102" depart="475">
			<route edges="road_1_0_1 road_1_1_1"/>
		</vehicle>
		<vehicle id="103" depart="478">
			<route edges="road_1_0_1 road_1_1_1"/>
		</vehicle>
		<vehicle id="104" depart="480">
			<route edges="road_1_0_1 road_1_1_1"/>
		</vehicle>
		<vehicle id="105" depart="485">
			<route edges="road_1_0_1 road_1_1_1"/>
		</vehicle>
		<vehicle id="106" depart="485">
			<route edges="road_1_0_1 road_1_1_2"/>
		</vehicle>
		<vehicle id="107" depart="493">
			<route edges="road_1_2_3 road_1_1_3"/>
		</vehicle>
		<vehicle id="108" depart="495">
			<route edges="road_1_0_1 road_1_1_1"/>
		</vehicle>
		<vehicle id="109" depart="497">
			<route edges="road_1_0_1 road_1_1_1"/>
		</vehicle>
		<vehicle id="110" depart="501">
			<route edges="road_0_1_0 road_1_1_0"/>
		</vehicle>
		<vehicle id="111" depart="518">
			<route edges="road_1_0_1 road_1_1_1"/>
		</vehicle>
		<vehicle id="112" depart="523">
			<route edges="road_1_0_1 road_1_1_1"/>
		</vehicle>
		<vehicle id="113" depart="533">
			<route edges="road_1_0_1 road_1_1_1"/>
		</vehicle>
		<vehicle id="114" depart="533">
			<route edges="road_1_0_1 road_1_1_2"/>
		</vehicle>
		<vehicle id="115" depart="534">
			<route edges="road_1_0_1 road_1_1_1"/>
		</vehicle>
		<vehicle id="116" depart="540">
			<route edges="road_1_0_1 road_1_1_1"/>
		</vehicle>
		<vehicle id="117" depart="552">
			<route edges="road_2_1_2 road_1_1_2"/>
		</vehicle>
		<vehicle id="118" depart="567">
			<route edges="road_2_1_2 road_1_1_2"/>
		</vehicle>
		<vehicle id="119" depart="569">
			<route edges="road_1_0_1 road_1_1_1"/>
		</vehicle>
		<vehicle id="120" depart="569">
			<route edges="road_2_1_2 road_1_1_2"/>
		</vehicle>
		<vehicle id="121" depart="575">
			<route edges="road_0_1_0 road_1_1_0"/>
		</vehicle>
		<vehicle id="122" depart="586">
			<route edges="road_0_1_0 road_1_1_0"/>
		</vehicle>
		<vehicle id="123" depart="587">
			<route edges="road_1_0_1 road_1_1_1"/>
		</vehicle>
		<vehicle id="124" depart="588">
			<route edges="road_1_2_3 road_1_1_3"/>
		</vehicle>
		<vehicle id="125" depart="595">
			<route edges="road_1_2_3 road_1_1_3"/>
		</vehicle>
		<vehicle id="126" depart="597">
			<route edges="road_1_2_3 road_1_1_3"/>
		</vehicle>
		<vehicle id="127" depart="597">
			<route edges="road_0_1_0 road_1_1_0"/>
		</vehicle>
		<vehicle id="128" depart="599">
			<route edges="road_1_0_1 road_1_1_1"/>
		</vehicle>
		<vehicle id="129" depart="599">
			<route edges="road_1_2_3 road_1_1_3"/>
		</vehicle>
		<vehicle id="130" depart="608">
			<route edges="road_0_1_0 road_1_1_0"/>
		</vehicle>
		<vehicle id="131" depart="610">
			<route edges="road_1_2_3 road_1_1_3"/>
		</vehicle>
		<vehicle id="132" depart="610">
			<route edges="road_1_2_3 road_1_1_0"/>
		</vehicle>
		<vehicle id="133" depart="612">
			<route edges="road_1_0_1 road_1_1_1"/>
		</vehicle>
		<vehicle id="134" depart="614">
			<route edges="road_1_0_1 road_1_1_1"/>
		</vehicle>
		<vehicle id="135" depart="616">
			<route edges="road_1_2_3 road_1_1_3"/>
		</vehicle>
		<vehicle id="136" depart="617">
			<route edges="road_2_1_2 road_1_1_2"/>
		</vehicle>
		<vehicle id="137" depart="617">
			<route edges="road_2_1_2 road_1_1_3"/>
		</vehicle>
		<vehicle id="138" depart="618">
			<route edges="road_1_0_1 road_1_1_1"/>
		</vehicle>
		<vehicle id="139" depart="624">
			<route edges="road_1_0_1 road_1_1_1"/>
		</vehicle>
		<vehicle id="140" depart="630">
			<route edges="road_1_2_3 road_1_1_3"/>
		</vehicle>
		<vehicle id="141" depart="640">
			<route edges="road_2_1_2 road_1_1_2"/>
		</vehicle>
		<vehicle id="142" depart="644">
			<route edges="road_0_1_0 road_1_1_0"/>
		</vehicle>
		<vehicle id="143" depart="646">
			<route edges="road_1_2_3 road_1_1_3"/>
		</vehicle>
		<vehicle id="144" depart="658">
			<route edges="road_1_2_3 road_1_1_3"/>
		</vehicle>
		<vehicle id="145" depart="660">
			<route edges="road_1_2_3 road_1_1_3"/>
		</vehicle>
		<vehicle id="146" depart="673">
			<route edges="road_0_1_0 road_1_1_0"/>
		</vehicle>
		<vehicle id="147" depart="678">
			<route edges="road_1_0_1 road_1_1_1"/>
		</vehicle>
		<vehicle id="148" depart="678">
			<route edges="road_2_1_2 road_1_1_2"/>
		</vehicle>
		<vehicle id="149" depart="684">
			<route edges="road_1_0_1 road_1_1_1"/>
		</vehicle>
		<vehicle id="150" depart="685">
			<route edges="road_0_1_0 road_1_1_0"/>
		</vehicle>
		<vehicle id="151" depart="687">
			<route edges="road_0_1_0 road_1_1_0"/>
		</vehicle>
		<vehicle id="152" depart="692">
			<route edges="road_1_0_1 road_1_1_1"/>
		</vehicle>
		<vehicle id="153" depart="692">
			<route edges="road_1_0_1 road_1_1_2"/>
		</vehicle>
		<vehicle id="154" depart="700">
			<route edges="road_1_2_3 road_1_1_3"/>
		</vehicle>
		<vehicle id="155" depart="700">
			<route edges="road_1_2_3 road_1_1_0"/>
		</vehicle>
		<vehicle id="156" depart="701">
			<route edges="road_1_0_1 road_1_1_1"/>
		</vehicle>
		<vehicle id="157" depart="704">
			<route edges="road_1_0_1 road_1_1_1"/>
		</vehicle>
		<vehicle id="158" depart="710">
			<route edges="road_1_0_1 road_1_1_1"/>
		</vehicle>
		<vehicle id="159" depart="711">
			<route edges="road_1_0_1 road_1_1_1"/>
		</vehicle>
		<vehicle id="160" depart="711">
			<route edges="road_1_0_1 road_1_1_2"/>
		</vehicle>
		<vehicle id="161" depart="713">
			<route edges="road_1_0_1 road_1_1_1"/>
		</vehicle>
		<vehicle id="162" depart="715">
			<route edges="road_1_2_3 road_1_1_3"/>
		</vehicle>
		<vehicle id="163" depart="715">
			<route edges="road_1_0_1 road_1_1_1"/>
		</vehicle>
		<vehicle id="164" depart="717">
			<route edges="road_1_0_1 road_1_1_1"/>
		</vehicle>
		<vehicle id="165" depart="717">
			<route edges="road_1_0_1 road_1_1_2"/>
		</vehicle>
		<vehicle id="166" depart="721">
			<route edges="road_1_2_3 road_1_1_3"/>
		</vehicle>
		<vehicle id="167" depart="724">
			<route edges="road_1_0_1 road_1_1_1"/>
		</vehicle>
		<vehicle id="168" depart="725">
			<route edges="road_1_0_1 road_1_1_1"/>
		</vehicle>
		<vehicle id="169" depart="727">
			<route edges="road_1_0_1 road_1_1_1"/>
		</vehicle>
		<vehicle id="170" depart="727">
			<route edges="road_1_0_1 road_1_1_2"/>
		</vehicle>
		<vehicle id="171" depart="727">
			<route edges="road_0_1_0 road_1_1_0"/>
		</vehicle>
		<vehicle id="172" depart="729">
			<route edges="road_1_0_1 road_1_1_1"/>
		</vehicle>
		<vehicle id="173" depart="731">
			<route edges="road_1_2_3 road_1_1_3"/>
		</vehicle>
		<vehicle id="174" depart="773">
			<route edges="road_0_1_0 road_1_1_0"/>
		</vehicle>
		<vehicle id="175" depart="777">
			<route edges="road_2_1_2 road_1_1_2"/>
		</vehicle>
		<vehicle id="176" depart="777">
			<route edges="road_2_1_2 road_1_1_3"/>
		</vehicle>
		<vehicle id="177" depart="780">
			<route edges="road_2_1_2 road_1_1_2"/>
		</vehicle>
		<vehicle id="178" depart="793">
			<route edges="road_1_0_1 road_1_1_1"/>
		</vehicle>
		<vehicle id="179" depart="793">
			<route edges="road_1_0_1 road_1_1_2"/>
		</vehicle>
		<vehicle id="180" depart="793">
			<route edges="road_1_2_3 road_1_1_3"/>
		</vehicle>
		<vehicle id="181" depart="798">
			<route edges="road_1_0_1 road_1_1_1"/>
		</vehicle>
		<vehicle id="182" depart="801">
			<route edges="road_1_0_1 road_1_1_1"/>
		</vehicle>
		<vehicle id="183" depart="804">
			<route edges="road_1_0_1 road_1_1_1"/>
		</vehicle>
		<vehicle id="184" depart="814">
			<route edges="road_1_0_1 road_1_1_1"/>
		</vehicle>
		<vehicle id="185" depart="816">
			<route edges="road_1_0_1 road_1_1_1"/>
		</vehicle>
		<vehicle id="186" depart="818">
			<route edges="road_1_0_1 road_1_1_1"/>
		</vehicle>
		<vehicle id="187" depart="820">
			<route edges="road_1_0_1 road_1_1_1"/>
		</vehicle>
		<vehicle id="188" depart="825">
			<route edges="road_1_0_1 road_1_1_1"/>
		</vehicle>
		<vehicle id="189" depart="827">
			<route edges="road_1_0_1 road_1_1_1"/>
		</vehicle>
		<vehicle id="190" depart="828">
			<route edges="road_1_2_3 road_1_1_3"/>
		</vehicle>
		<vehicle id="191" depart="831">
			<route edges="road_2_1_2 road_1_1_2"/>
		</vehicle>
		<vehicle id="192" depart="832">
			<route edges="road_1_0_1 road_1_1_1"/>
		</vehicle>
		<vehicle id="193" depart="835">
			<route edges="road_1_2_3 road_1_1_3"/>
		</vehicle>
		<vehicle id="194" depart="836">
			<route edges="road_1_0_1 road_1_1_1"/>
		</vehicle>
		<vehicle id="195" depart="836">
			<route edges="road_1_0_1 road_1_1_2"/>
		</vehicle>
		<vehicle id="196" depart="837">
			<route edges="road_1_0_1 road_1_1_1"/>
		</vehicle>
		<vehicle id="197" depart="837">
			<route edges="road_1_0_1 road_1_1_2"/>
		</vehicle>
		<vehicle id="198" depart="837">
			<route edges="road_1_0_1 road_1_1_1"/>
		</vehicle>
		<vehicle id="199" depart="838">
			<route edges="road_1_2_3 road_1_1_3"/>
		</vehicle>
		<vehicle id="200" depart="840">
			<route edges="road_1_0_1 road_1_1_1"/>
		</vehicle>
		<vehicle id="201" depart="844">
			<route edges="road_1_0_1 road_1_1_1"/>
		</vehicle>
		<vehicle id="202" depart="844">
			<route edges="road_1_2_3 road_1_1_3"/>
		</vehicle>
		<vehicle id="203" depart="845">
			<route edges="road_1_0_1 road_1_1_1"/>
		</vehicle>
		<vehicle id="204" depart="847">
			<route edges="road_1_0_1 road_1_1_1"/>
		</vehicle>
		<vehicle id="205" depart="849">
			<route edges="road_0_1_0 road_1_1_0"/>
		</vehicle>
		<vehicle id="206" depart="849">
			<route edges="road_1_0_1 road_1_1_1"/>
		</vehicle>
		<vehicle id="207" depart="853">
			<route edges="road_0_1_0 road_1_1_0"/>
		</vehicle>
		<vehicle id="208" depart="854">
			<route edges="road_1_0_1 road_1_1_1"/>
		</vehicle>
		<vehicle id="209" depart="868">
			<route edges="road_1_0_1 road_1_1_1"/>
		</vehicle>
		<vehicle id="210" depart="899">
			<route edges="road_0_1_0 road_1_1_0"/>
		</vehicle>
		<vehicle id="211" depart="901">
			<route edges="road_0_1_0 road_1_1_0"/>
		</vehicle>
		<vehicle id="212" depart="907">
			<route edges="road_1_0_1 road_1_1_1"/>
		</vehicle>
		<vehicle id="213" depart="913">
			<route edges="road_1_0_1 road_1_1_1"/>
		</vehicle>
		<vehicle id="214" depart="924">
			<route edges="road_1_0_1 road_1_1_1"/>
		</vehicle>
		<vehicle id="215" depart="928">
			<route edges="road_1_0_1 road_1_1_1"/>
		</vehicle>
		<vehicle id="216" depart="930">
			<route edges="road_1_0_1 road_1_1_1"/>
		</vehicle>
		<vehicle id="217" depart="941">
			<route edges="road_1_0_1 road_1_1_1"/>
		</vehicle>
		<vehicle id="218" depart="942">
			<route edges="road_1_0_1 road_1_1_1"/>
		</vehicle>
		<vehicle id="219" depart="951">
			<route edges="road_1_0_1 road_1_1_1"/>
		</vehicle>
		<vehicle id="220" depart="962">
			<route edges="road_1_0_1 road_1_1_1"/>
		</vehicle>
		<vehicle id="221" depart="967">
			<route edges="road_1_2_3 road_1_1_3"/>
		</vehicle>
		<vehicle id="222" depart="969">
			<route edges="road_2_1_2 road_1_1_2"/>
		</vehicle>
		<vehicle id="223" depart="969">
			<route edges="road_2_1_2 road_1_1_3"/>
		</vehicle>
		<vehicle id="224" depart="971">
			<route edges="road_2_1_2 road_1_1_2"/>
		</vehicle>
		<vehicle id="225" depart="973">
			<route edges="road_1_0_1 road_1_1_1"/>
		</vehicle>
		<vehicle id="226" depart="977">
			<route edges="road_1_2_3 road_1_1_3"/>
		</vehicle>
		<vehicle id="227" depart="990">
			<route edges="road_2_1_2 road_1_1_2"/>
		</vehicle>
		<vehicle id="228" depart="1003">
			<route edges="road_2_1_2 road_1_1_2"/>
		</vehicle>
		<vehicle id="229" depart="1010">
			<route edges="road_1_0_1 road_1_1_1"/>
		</vehicle>
		<vehicle id="230" depart="1020">
			<route edges="road_1_2_3 road_1_1_3"/>
		</vehicle>
		<vehicle id="231" depart="1024">
			<route edges="road_0_1_0 road_1_1_0"/>
		</vehicle>
		<vehicle id="232" depart="1036">
			<route edges="road_1_0_1 road_1_1_1"/>
		</vehicle>
		<vehicle id="233" depart="1037">
			<route edges="road_0_1_0 road_1_1_0"/>
		</vehicle>
		<vehicle id="234" depart="1041">
			<route edges="road_1_0_1 road_1_1_1"/>
		</vehicle>
		<vehicle id="235" depart="1041">
			<route edges="road_1_0_1 road_1_1_2"/>
		</vehicle>
		<vehicle id="236" depart="1044">
			<route edges="road_1_0_1 road_1_1_1"/>
		</vehicle>
		<vehicle id="237" depart="1047">
			<route edges="road_1_0_1 road_1_1_1"/>
		</vehicle>
		<vehicle id="238" depart="1047">
			<route edges="road_1_0_1 road_1_1_2"/>
		</vehicle>
		<vehicle id="239" depart="1050">
			<route edges="road_0_1_0 road_1_1_0"/>
		</vehicle>
		<vehicle id="240" depart="1075">
			<route edges="road_1_0_1 road_1_1_1"/>
		</vehicle>
		<vehicle id="241" depart="1085">
			<route edges="road_1_0_1 road_1_1_1"/>
		</vehicle>
		<vehicle id="242" depart="1085">
			<route edges="road_0_1_0 road_1_1_0"/>
		</vehicle>
		<vehicle id="243" depart="1086">
			<route edges="road_1_0_1 road_1_1_1"/>
		</vehicle>
		<vehicle id="244" depart="1099">
			<route edges="road_1_2_3 road_1_1_3"/>
		</vehicle>
		<vehicle id="245" depart="1109">
			<route edges="road_2_1_2 road_1_1_2"/>
		</vehicle>
		<vehicle id="246" depart="1109">
			<route edges="road_2_1_2 road_1_1_3"/>
		</vehicle>
		<vehicle id="247" depart="1122">
			<route edges="road_2_1_2 road_1_1_2"/>
		</vehicle>
		<vehicle id="248" depart="1127">
			<route edges="road_1_0_1 road_1_1_1"/>
		</vehicle>
		<vehicle id="249" depart="1128">
			<route edges="road_0_1_0 road_1_1_0"/>
		</vehicle>
		<vehicle id="250" depart="1129">
			<route edges="road_1_0_1 road_1_1_1"/>
		</vehicle>
		<vehicle id="251" depart="1131">
			<route edges="road_1_0_1 road_1_1_1"/>
		</vehicle>
		<vehicle id="252" depart="1143">
			<route edges="road_1_0_1 road_1_1_1"/>
		</vehicle>
		<vehicle id="253" depart="1143">
			<route edges="road_1_2_3 road_1_1_3"/>
		</vehicle>
		<vehicle id="254" depart="1145">
			<route edges="road_0_1_0 road_1_1_0"/>
		</vehicle>
		<vehicle id="255" depart="1145">
			<route edges="road_0_1_0 road_1_1_1"/>
		</vehicle>
		<vehicle id="256" depart="1145">
			<route edges="road_1_2_3 road_1_1_3"/>
		</vehicle>
		<vehicle id="257" depart="1146">
			<route edges="road_1_0_1 road_1_1_1"/>
		</vehicle>
		<vehicle id="258" depart="1149">
			<route edges="road_1_0_1 road_1_1_1"/>
		</vehicle>
		<vehicle id="259" depart="1151">
			<route edges="road_1_0_1 road_1_1_1"/>
		</vehicle>
		<vehicle id="260" depart="1156">
			<route edges="road_1_0_1 road_1_1_1"/>
		</vehicle>
		<vehicle id="261" depart="1156">
			<route edges="road_1_0_1 road_1_1_2"/>
		</vehicle>
		<vehicle id="262" depart="1158">
			<route edges="road_0_1_0 road_1_1_0"/>
		</vehicle>
		<vehicle id="263" depart="1161">
			<route edges="road_1_0_1 road_1_1_1"/>
		</vehicle>
		<vehicle id="264" depart="1161">
			<route edges="road_1_0_1 road_1_1_1"/>
		</vehicle>
		<vehicle id="265" depart="1162">
			<route edges="road_1_0_1 road_1_1_1"/>
		</vehicle>
		<vehicle id="266" depart="1163">
			<route edges="road_1_0_1 road_1_1_1"/>
		</vehicle>
		<vehicle id="267" depart="1166">
			<route edges="road_1_2_3 road_1_1_3"/>
		</vehicle>
		<vehicle id="268" depart="1167">
			<route edges="road_1_0_1 road_1_1_1"/>
		</vehicle>
		<vehicle id="269" depart="1167">
			<route edges="road_1_0_1 road_1_1_2"/>
		</vehicle>
		<vehicle id="270" depart="1187">
			<route edges="road_1_0_1 road_1_1_1"/>
		</vehicle>
		<vehicle id="271" depart="1207">
			<route edges="road_1_0_1 road_1_1_1"/>
		</vehicle>
		<vehicle id="272" depart="1239">
			<route edges="road_1_0_1 road_1_1_1"/>
		</vehicle>
		<vehicle id="273" depart="1239">
			<route edges="road_0_1_0 road_1_1_0"/>
		</vehicle>
		<vehicle id="274" depart="1245">
			<route edges="road_0_1_0 road_1_1_0"/>
		</vehicle>
		<vehicle id="275" depart="1245">
			<route edges="road_0_1_0 road_1_1_1"/>
		</vehicle>
		<vehicle id="276" depart="1253">
			<route edges="road_1_0_1 road_1_1_1"/>
		</vehicle>
		<vehicle id="277" depart="1253">
			<route edges="road_0_1_0 road_1_1_0"/>
		</vehicle>
		<vehicle id="278" depart="1253">
			<route edges="road_1_2_3 road_1_1_3"/>
		</vehicle>
		<vehicle id="279" depart="1255">
			<route edges="road_0_1_0 road_1_1_0"/>
		</vehicle>
		<vehicle id="280" depart="1255">
			<route edges="road_1_0_1 road_1_1_1"/>
		</vehicle>
		<vehicle id="281" depart="1258">
			<route edges="road_1_0_1 road_1_1_1"/>
		</vehicle>
		<vehicle id="282" depart="1258">
			<route edges="road_1_0_1 road_1_1_2"/>
		</vehicle>
		<vehicle id="283" depart="1261">
			<route edges="road_1_2_3 road_1_1_3"/>
		</vehicle>
		<vehicle id="284" depart="1267">
			<route edges="road_1_2_3 road_1_1_3"/>
		</vehicle>
		<vehicle id="285" depart="1269">
			<route edges="road_1_2_3 road_1_1_3"/>
		</vehicle>
		<vehicle id="286" depart="1269">
			<route edges="road_1_2_3 road_1_1_0"/>
		</vehicle>
		<vehicle id="287" depart="1272">
			<route edges="road_1_2_3 road_1_1_3"/>
		</vehicle>
		<vehicle id="288" depart="1275">
			<route edges="road_1_0_1 road_1_1_1"/>
		</vehicle>
		<vehicle id="289" depart="1277">
			<route edges="road_1_0_1 road_1_1_1"/>
		</vehicle>
		<vehicle id="290" depart="1279">
			<route edges="road_1_2_3 road_1_1_3"/>
		</vehicle>
		<vehicle id="291" depart="1283">
			<route edges="road_1_2_3 road_1_1_3"/>
		</vehicle>
		<vehicle id="292" depart="1283">
			<route edges="road_2_1_2 road_1_1_2"/>
		</vehicle>
		<vehicle id="293" depart="1283">
			<route edges="road_1_0_1 road_1_1_1"/>
		</vehicle>
		<vehicle id="294" depart="1291">
			<route edges="road_2_1_2 road_1_1_2"/>
		</vehicle>
		<vehicle id="295" depart="1291">
			<route edges="road_2_1_2 road_1_1_3"/>
		</vehicle>
		<vehicle id="296" depart="1293">
			<route edges="road_2_1_2 road_1_1_2"/>
		</vehicle>
		<vehicle id="297" depart="1295">
			<route edges="road_1_0_1 road_1_1_1"/>
		</vehicle>
		<vehicle id="298" depart="1299">
			<route edges="road_1_0_1 road_1_1_1"/>
		</vehicle>
		<vehicle id="299" depart="1305">
			<route edges="road_1_0_1 road_1_1_1"/>
		</vehicle>
		<vehicle id="300" depart="1327">
			<route edges="road_2_1_2 road_1_1_2"/>
		</vehicle>
		<vehicle id="301" depart="1334">
			<route edges="road_1_0_1 road_1_1_1"/>
		</vehicle>
		<vehicle id="302" depart="1342">
			<route edges="road_1_0_1 road_1_1_1"/>
		</vehicle>
		<vehicle id="303" depart="1345">
			<route edges="road_2_1_2 road_1_1_2"/>
		</vehicle>
		<vehicle id="304" depart="1347">
			<route edges="road_1_0_1 road_1_1_1"/>
		</vehicle>
		<vehicle id="305" depart="1351">
			<route edges="road_0_1_0 road_1_1_0"/>
		</vehicle>
		<vehicle id="306" depart="1356">
			<route edges="road_1_2_3 road_1_1_3"/>
		</vehicle>
		<vehicle id="307" depart="1362">
			<route edges="road_1_0_1 road_1_1_1"/>
		</vehicle>
		<vehicle id="308" depart="1367">
			<route edges="road_1_0_1 road_1_1_1"/>
		</vehicle>
		<vehicle id="309" depart="1368">
			<route edges="road_1_0_1 road_1_1_1"/>
		</vehicle>
		<vehicle id="310" depart="1372">
			<route edges="road_1_2_3 road_1_1_3"/>
		</vehicle>
		<vehicle id="311" depart="1373">
			<route edges="road_1_2_3 road_1_1_3"/>
		</vehicle>
		<vehicle id="312" depart="1389">
			<route edges="road_1_0_1 road_1_1_1"/>
		</vehicle>
		<vehicle id="313" depart="1396">
			<route edges="road_1_0_1 road_1_1_1"/>
		</vehicle>
		<vehicle id="314" depart="1397">
			<route edges="road_1_0_1 road_1_1_1"/>
		</vehicle>
		<vehicle id="315" depart="1402">
			<route edges="road_2_1_2 road_1_1_2"/>
		</vehicle>
		<vehicle id="316" depart="1402">
			<route edges="road_1_0_1 road_1_1_1"/>
		</vehicle>
		<vehicle id="317" depart="1405">
			<route edges="road_1_0_1 road_1_1_1"/>
		</vehicle>
		<vehicle id="318" depart="1405">
			<route edges="road_0_1_0 road_1_1_0"/>
		</vehicle>
		<vehicle id="319" depart="1406">
			<route edges="road_1_0_1 road_1_1_1"/>
		</vehicle>
		<vehicle id="320" depart="1409">
			<route edges="road_1_0_1 road_1_1_1"/>
		</vehicle>
		<vehicle id="321" depart="1413">
			<route edges="road_1_2_3 road_1_1_3"/>
		</vehicle>
		<vehicle id="322" depart="1414">
			<route edges="road_0_1_0 road_1_1_0"/>
		</vehicle>
		<vehicle id="323" depart="1414">
			<route edges="road_0_1_0 road_1_1_1"/>
		</vehicle>
		<vehicle id="324" depart="1414">
			<route edges="road_1_0_1 road_1_1_1"/>
		</vehicle>
		<vehicle id="325" depart="1416">
			<route edges="road_1_0_1 road_1_1_1"/>
		</vehicle>
		<vehicle id="326" depart="1422">
			<route edges="road_0_1_0 road_1_1_0"/>
		</vehicle>
		<vehicle id="327" depart="1424">
			<route edges="road_1_0_1 road_1_1_1"/>
		</vehicle>
		<vehicle id="328" depart="1425">
			<route edges="road_0_1_0 road_1_1_0"/>
		</vehicle>
		<vehicle id="329" depart="1427">
			<route edges="road_0_1_0 road_1_1_0"/>
		</vehicle>
		<vehicle id="330" depart="1427">
			<route edges="road_0_1_0 road_1_1_1"/>
		</vehicle>
		<vehicle id="331" depart="1428">
			<route edges="road_1_0_1 road_1_1_1"/>
		</vehicle>
		<vehicle id="332" depart="1431">
			<route edges="road_0_1_0 road_1_1_0"/>
		</vehicle>
		<vehicle id="333" depart="1437">
			<route edges="road_2_1_2 road_1_1_2"/>
		</vehicle>