<?xml version="1.0" encoding="utf-8"?>
	<routes xmlns:xsi="http://www.w3.org/2001/XMLSchema-instance" xsi:noNamespaceSchemaLocation="http://sumo.dlr.de/xsd/routes_file.xsd">
		<vType id="pkw" length="5.0" width="2.0" minGap="2.5" maxSpeed="11.111" accel="2.0" decel="4.5"/>
		<vehicle id="0" depart="5">
			<route edges="road_1_0_1 road_1_1_1"/>
		</vehicle>
		<vehicle id="1" depart="38">
			<route edges="road_2_1_2 road_1_1_2"/>
		</vehicle>
		<vehicle id="2" depart="40">
			<route edges="road_2_1_2 road_1_1_2"/>
		</vehicle>
		<vehicle id="3" depart="65">
			<route edges="road_1_0_1 road_1_1_1"/>
		</vehicle>
		<vehicle id="4" depart="67">
			<route edges="road_1_0_1 road_1_1_1"/>
		</vehicle>
		<vehicle id="5" depart="69">
			<route edges="road_0_1_0 road_1_1_0"/>
		</vehicle>
		<vehicle id="6" depart="69">
			<route edges="road_0_1_0 road_1_1_1"/>
		</vehicle>
		<vehicle id="7" depart="71">
			<route edges="road_0_1_0 road_1_1_0"/>
		</vehicle>
		<vehicle id="8" depart="73">
			<route edges="road_1_0_1 road_1_1_1"/>
		</vehicle>
		<vehicle id="9" depart="73">
			<route edges="road_1_0_1 road_1_1_2"/>
		</vehicle>
		<vehicle id="10" depart="77">
			<route edges="road_1_0_1 road_1_1_1"/>
		</vehicle>
		<vehicle id="11" depart="78">
			<route edges="road_1_2_3 road_1_1_3"/>
		</vehicle>
		<vehicle id="12" depart="81">
			<route edges="road_1_2_3 road_1_1_3"/>
		</vehicle>
		<vehicle id="13" depart="84">
			<route edges="road_1_0_1 road_1_1_1"/>
		</vehicle>
		<vehicle id="14" depart="85">
			<route edges="road_1_2_3 road_1_1_3"/>
		</vehicle>
		<vehicle id="15" depart="85">
			<route edges="road_1_2_3 road_1_1_0"/>
		</vehicle>
		<vehicle id="16" depart="93">
			<route edges="road_1_2_3 road_1_1_3"/>
		</vehicle>
		<vehicle id="17" depart="97">
			<route edges="road_1_0_1 road_1_1_1"/>
		</vehicle>
		<vehicle id="18" depart="97">
			<route edges="road_1_0_1 road_1_1_2"/>
		</vehicle>
		<vehicle id="19" depart="103">
			<route edges="road_0_1_0 road_1_1_0"/>
		</vehicle>
		<vehicle id="20" depart="108">
			<route edges="road_1_2_3 road_1_1_3"/>
		</vehicle>
		<vehicle id="21" depart="144">
			<route edges="road_0_1_0 road_1_1_0"/>
		</vehicle>
		<vehicle id="22" depart="154">
			<route edges="road_0_1_0 road_1_1_0"/>
		</vehicle>
		<vehicle id="23" depart="168">
			<route edges="road_2_1_2 road_1_1_2"/>
		</vehicle>
		<vehicle id="24" depart="173">
			<route edges="road_1_0_1 road_1_1_1"/>
		</vehicle>
		<vehicle id="25" depart="178">
			<route edges="road_1_0_1 road_1_1_1"/>
		</vehicle>
		<vehicle id="26" depart="185">
			<route edges="road_1_0_1 road_1_1_1"/>
		</vehicle>
		<vehicle id="27" depart="189">
			<route edges="road_1_0_1 road_1_1_1"/>
		</vehicle>
		<vehicle id="28" depart="210">
			<route edges="road_2_1_2 road_1_1_2"/>
		</vehicle>
		<vehicle id="29" depart="219">
			<route edges="road_1_2_3 road_1_1_3"/>
		</vehicle>
		<vehicle id="30" depart="234">
			<route edges="road_1_2_3 road_1_1_3"/>
		</vehicle>
		<vehicle id="31" depart="242">
			<route edges="road_1_0_1 road_1_1_1"/>
		</vehicle>
		<vehicle id="32" depart="247">
			<route edges="road_1_0_1 road_1_1_1"/>
		</vehicle>
		<vehicle id="33" depart="253">
			<route edges="road_1_0_1 road_1_1_1"/>
		</vehicle>
		<vehicle id="34" depart="268">
			<route edges="road_1_0_1 road_1_1_1"/>
		</vehicle>
		<vehicle id="35" depart="306">
			<route edges="road_1_0_1 road_1_1_1"/>
		</vehicle>
		<vehicle id="36" depart="309">
			<route edges="road_1_0_1 road_1_1_1"/>
		</vehicle>
		<vehicle id="37" depart="315">
			<route edges="road_0_1_0 road_1_1_0"/>
		</vehicle>
		<vehicle id="38" depart="327">
			<route edges="road_1_0_1 road_1_1_1"/>
		</vehicle>
		<vehicle id="39" depart="342">
			<route edges="road_1_0_1 road_1_1_1"/>
		</vehicle>
		<vehicle id="40" depart="374">
			<route edges="road_1_0_1 road_1_1_1"/>
		</vehicle>
		<vehicle id="41" depart="380">
			<route edges="road_1_0_1 road_1_1_1"/>
		</vehicle>
		<vehicle id="42" depart="391">
			<route edges="road_2_1_2 road_1_1_2"/>
		</vehicle>
		<vehicle id="43" depart="400">
			<route edges="road_1_0_1 road_1_1_1"/>
		</vehicle>
		<vehicle id="44" depart="400">
			<route edges="road_1_0_1 road_1_1_2"/>
		</vehicle>
		<vehicle id="45" depart="407">
			<route edges="road_1_2_3 road_1_1_3"/>
		</vehicle>
		<vehicle id="46" depart="412">
			<route edges="road_1_2_3 road_1_1_3"/>
		</vehicle>
		<vehicle id="47" depart="415">
			<route edges="road_1_0_1 road_1_1_1"/>
		</vehicle>
		<vehicle id="48" depart="416">
			<route edges="road_1_2_3 road_1_1_3"/>
		</vehicle>
		<vehicle id="49" depart="419">
			<route edges="road_1_2_3 road_1_1_3"/>
		</vehicle>
		<vehicle id="50" depart="422">
			<route edges="road_1_0_1 road_1_1_1"/>
		</vehicle>
		<vehicle id="51" depart="425">
			<route edges="road_1_0_1 road_1_1_1"/>
		</vehicle>
		<vehicle id="52" depart="427">
			<route edges="road_0_1_0 road_1_1_0"/>
		</vehicle>
		<vehicle id="53" depart="427">
			<route edges="road_2_1_2 road_1_1_2"/>
		</vehicle>
		<vehicle id="54" depart="428">
			<route edges="road_1_0_1 road_1_1_1"/>
		</vehicle>
		<vehicle id="55" depart="430">
			<route edges="road_1_2_3 road_1_1_3"/>
		</vehicle>
		<vehicle id="56" depart="436">
			<route edges="road_1_2_3 road_1_1_3"/>
		</vehicle>
		<vehicle id="57" depart="438">
			<route edges="road_1_0_1 road_1_1_1"/>
		</vehicle>
		<vehicle id="58" depart="454">
			<route edges="road_1_2_3 road_1_1_3"/>
		</vehicle>
		<vehicle id="59" depart="478">
			<route edges="road_2_1_2 road_1_1_2"/>
		</vehicle>
		<vehicle id="60" depart="490">
			<route edges="road_1_0_1 road_1_1_1"/>
		</vehicle>
		<vehicle id="61" depart="505">
			<route edges="road_1_0_1 road_1_1_1"/>
		</vehicle>
		<vehicle id="62" depart="518">
			<route edges="road_1_0_1 road_1_1_1"/>
		</vehicle>
		<vehicle id="63" depart="522">
			<route edges="road_1_0_1 road_1_1_1"/>
		</vehicle>
		<vehicle id="64" depart="522">
			<route edges="road_1_0_1 road_1_1_2"/>
		</vehicle>
		<vehicle id="65" depart="526">
			<route edges="road_1_0_1 road_1_1_1"/>
		</vehicle>
		<vehicle id="66" depart="528">
			<route edges="road_1_0_1 road_1_1_1"/>
		</vehicle>
		<vehicle id="67" depart="532">
			<route edges="road_1_0_1 road_1_1_1"/>
		</vehicle>
		<vehicle id="68" depart="532">
			<route edges="road_1_2_3 road_1_1_3"/>
		</vehicle>
		<vehicle id="69" depart="533">
			<route edges="road_1_0_1 road_1_1_1"/>
		</vehicle>
		<vehicle id="70" depart="541">
			<route edges="road_1_0_1 road_1_1_1"/>
		</vehicle>
		<vehicle id="71" depart="542">
			<route edges="road_1_2_3 road_1_1_3"/>
		</vehicle>
		<vehicle id="72" depart="542">
			<route edges="road_1_2_3 road_1_1_0"/>
		</vehicle>
		<vehicle id="73" depart="549">
			<route edges="road_1_2_3 road_1_1_3"/>
		</vehicle>
		<vehicle id="74" depart="556">
			<route edges="road_1_2_3 road_1_1_3"/>
		</vehicle>
		<vehicle id="75" depart="557">
			<route edges="road_1_2_3 road_1_1_3"/>
		</vehicle>
		<vehicle id="76" depart="573">
			<route edges="road_2_1_2 road_1_1_2"/>
		</vehicle>
		<vehicle id="77" depart="577">
			<route edges="road_1_2_3 road_1_1_3"/>
		</vehicle>
		<vehicle id="78" depart="587">
			<route edges="road_0_1_0 road_1_1_0"/>
		</vehicle>
		<vehicle id="79" depart="624">
			<route edges="road_1_0_1 road_1_1_1"/>
		</vehicle>
		<vehicle id="80" depart="639">
			<route edges="road_1_0_1 road_1_1_1"/>
		</vehicle>
		<vehicle id="81" depart="641">
			<route edges="road_1_2_3 road_1_1_3"/>
		</vehicle>
		<vehicle id="82" depart="641">
			<route edges="road_1_2_3 road_1_1_0"/>
		</vehicle>
		<vehicle id="83" depart="655">
			<route edges="road_1_0_1 road_1_1_1"/>
		</vehicle>
		<vehicle id="84" depart="656">
			<route edges="road_1_0_1 road_1_1_1"/>
		</vehicle>
		<vehicle id="85" depart="656">
			<route edges="road_1_0_1 road_1_1_2"/>
		</vehicle>
		<vehicle id="86" depart="659">
			<route edges="road_1_0_1 road_1_1_1"/>
		</vehicle>
		<vehicle id="87" depart="659">
			<route edges="road_1_0_1 road_1_1_2"/>
		</vehicle>
		<vehicle id="88" depart="664">
			<route edges="road_1_0_1 road_1_1_1"/>
		</vehicle>
		<vehicle id="89" depart="665">
			<route edges="road_1_2_3 road_1_1_3"/>
		</vehicle>
		<vehicle id="90" depart="673">
			<route edges="road_1_0_1 road_1_1_1"/>
		</vehicle>
		<vehicle id="91" depart="695">
			<route edges="road_2_1_2 road_1_1_2"/>
		</vehicle>
		<vehicle id="92" depart="697">
			<route edges="road_1_2_3 road_1_1_3"/>
		</vehicle>
		<vehicle id="93" depart="699">
			<route edges="road_1_0_1 road_1_1_1"/>
		</vehicle>
		<vehicle id="94" depart="699">
			<route edges="road_1_0_1 road_1_1_2"/>
		</vehicle>
		<vehicle id="95" depart="705">
			<route edges="road_2_1_2 road_1_1_2"/>
		</vehicle>
		<vehicle id="96" depart="729">
			<route edges="road_0_1_0 road_1_1_0"/>
		</vehicle>
		<vehicle id="97" depart="733">
			<route edges="road_0_1_0 road_1_1_0"/>
		</vehicle>
		<vehicle id="98" depart="734">
			<route edges="road_1_0_1 road_1_1_1"/>
		</vehicle>
		<vehicle id="99" depart="734">
			<route edges="road_1_2_3 road_1_1_3"/>
		</vehicle>
		<vehicle id="100" depart="736">
			<route edges="road_1_0_1 road_1_1_1"/>
		</vehicle>
		<vehicle id="101" depart="740">
			<route edges="road_1_2_3 road_1_1_3"/>
		</vehicle>
		<vehicle id="102" depart="741">
			<route edges="road_1_0_1 road_1_1_1"/>
		</vehicle>
		<vehicle id="103" depart="742">
			<route edges="road_1_0_1 road_1_1_1"/>
		</vehicle>
		<vehicle id="104" depart="742">
			<route edges="road_1_0_1 road_1_1_2"/>
		</vehicle>
		<vehicle id="105" depart="747">
			<route edges="road_1_0_1 road_1_1_1"/>
		</vehicle>
		<vehicle id="106" depart="747">
			<route edges="road_1_2_3 road_1_1_3"/>
		</vehicle>
		<vehicle id="107" depart="748">
			<route edges="road_1_0_1 road_1_1_1"/>
		</vehicle>
		<vehicle id="108" depart="749">
			<route edges="road_1_0_1 road_1_1_1"/>
		</vehicle>
		<vehicle id="109" depart="754">
			<route edges="road_0_1_0 road_1_1_0"/>
		</vehicle>
		<vehicle id="110" depart="754">
			<route edges="road_0_1_0 road_1_1_1"/>
		</vehicle>
		<vehicle id="111" depart="754">
			<route edges="road_1_0_1 road_1_1_1"/>
		</vehicle>
		<vehicle id="112" depart="762">
			<route edges="road_1_0_1 road_1_1_1"/>
		</vehicle>
		<vehicle id="113" depart="769">
			<route edges="road_1_2_3 road_1_1_3"/>
		</vehicle>
		<vehicle id="114" depart="769">
			<route edges="road_1_2_3 road_1_1_0"/>
		</vehicle>
		<vehicle id="115" depart="776">
			<route edges="road_0_1_0 road_1_1_0"/>
		</vehicle>
		<vehicle id="116" depart="776">
			<route edges="road_1_0_1 road_1_1_1"/>
		</vehicle>
		<vehicle id="117" depart="777">
			<route edges="road_1_0_1 road_1_1_1"/>
		</vehicle>
		<vehicle id="118" depart="812">
			<route edges="road_0_1_0 road_1_1_0"/>
		</vehicle>
		<vehicle id="119" depart="849">
			<route edges="road_1_2_3 road_1_1_3"/>
		</vehicle>
		<vehicle id="120" depart="852">
			<route edges="road_2_1_2 road_1_1_2"/>
		</vehicle>
		<vehicle id="121" depart="856">
			<route edges="road_1_0_1 road_1_1_1"/>
		</vehicle>
		<vehicle id="122" depart="857">
			<route edges="road_1_2_3 road_1_1_3"/>
		</vehicle>
		<vehicle id="123" depart="862">
			<route edges="road_1_0_1 road_1_1_1"/>
		</vehicle>
		<vehicle id="124" depart="869">
			<route edges="road_1_0_1 road_1_1_1"/>
		</vehicle>
		<vehicle id="125" depart="869">
			<route edges="road_1_0_1 road_1_1_2"/>
		</vehicle>
		<vehicle id="126" depart="873">
			<route edges="road_1_0_1 road_1_1_1"/>
		</vehicle>
		<vehicle id="127" depart="873">
			<route edges="road_1_0_1 road_1_1_2"/>
		</vehicle>
		<vehicle id="128" depart="876">
			<route edges="road_1_2_3 road_1_1_3"/>
		</vehicle>
		<vehicle id="129" depart="876">
			<route edges="road_1_0_1 road_1_1_1"/>
		</vehicle>
		<vehicle id="130" depart="882">
			<route edges="road_1_0_1 road_1_1_1"/>
		</vehicle>
		<vehicle id="131" depart="897">
			<route edges="road_1_0_1 road_1_1_1"/>
		</vehicle>
		<vehicle id="132" depart="898">
			<route edges="road_1_0_1 road_1_1_1"/>
		</vehicle>
		<vehicle id="133" depart="904">
			<route edges="road_1_2_3 road_1_1_3"/>
		</vehicle>
		<vehicle id="134" depart="904">
			<route edges="road_0_1_0 road_1_1_0"/>
		</vehicle>
		<vehicle id="135" depart="908">
			<route edges="road_1_0_1 road_1_1_1"/>
		</vehicle>
		<vehicle id="136" depart="912">
			<route edges="road_2_1_2 road_1_1_2"/>
		</vehicle>
		<vehicle id="137" depart="936">
			<route edges="road_1_0_1 road_1_1_1"/>
		</vehicle>
		<vehicle id="138" depart="945">
			<route edges="road_1_0_1 road_1_1_1"/>
		</vehicle>
		<vehicle id="139" depart="947">
			<route edges="road_0_1_0 road_1_1_0"/>
		</vehicle>
		<vehicle id="140" depart="952">
			<route edges="road_1_0_1 road_1_1_1"/>
		</vehicle>
		<vehicle id="141" depart="961">
			<route edges="road_1_2_3 road_1_1_3"/>
		</vehicle>
		<vehicle id="142" depart="966">
			<route edges="road_1_0_1 road_1_1_1"/>
		</vehicle>
		<vehicle id="143" depart="968">
			<route edges="road_1_0_1 road_1_1_1"/>
		</vehicle>
		<vehicle id="144" depart="968">
			<route edges="road_1_0_1 road_1_1_2"/>
		</vehicle>
		<vehicle id="145" depart="1008">
			<route edges="road_1_0_1 road_1_1_1"/>
		</vehicle>
		<vehicle id="146" depart="1009">
			<route edges="road_1_0_1 road_1_1_1"/>
		</vehicle>
		<vehicle id="147" depart="1021">
			<route edges="road_1_0_1 road_1_1_1"/>
		</vehicle>
		<vehicle id="148" depart="1024">
			<route edges="road_1_2_3 road_1_1_3"/>
		</vehicle>
		<vehicle id="149" depart="1029">
			<route edges="road_2_1_2 road_1_1_2"/>
		</vehicle>
		<vehicle id="150" depart="1061">
			<route edges="road_1_0_1 road_1_1_1"/>
		</vehicle>
		<vehicle id="151" depart="1069">
			<route edges="road_1_0_1 road_1_1_1"/>
		</vehicle>
		<vehicle id="152" depart="1069">
			<route edges="road_2_1_2 road_1_1_2"/>
		</vehicle>
		<vehicle id="153" depart="1069">
			<route edges="road_1_0_1 road_1_1_1"/>
		</vehicle>
		<vehicle id="154" depart="1070">
			<route edges="road_1_0_1 road_1_1_1"/>
		</vehicle>
		<vehicle id="155" depart="1072">
			<route edges="road_1_0_1 road_1_1_1"/>
		</vehicle>
		<vehicle id="156" depart="1072">
			<route edges="road_1_0_1 road_1_1_2"/>
		</vehicle>
		<vehicle id="157" depart="1079">
			<route edges="road_1_2_3 road_1_1_3"/>
		</vehicle>
		<vehicle id="158" depart="1081">
			<route edges="road_1_0_1 road_1_1_1"/>
		</vehicle>
		<vehicle id="159" depart="1083">
			<route edges="road_1_0_1 road_1_1_1"/>
		</vehicle>
		<vehicle id="160" depart="1083">
			<route edges="road_1_0_1 road_1_1_2"/>
		</vehicle>
		<vehicle id="161" depart="1085">
			<route edges="road_1_0_1 road_1_1_1"/>
		</vehicle>
		<vehicle id="162" depart="1086">
			<route edges="road_1_2_3 road_1_1_3"/>
		</vehicle>
		<vehicle id="163" depart="1086">
			<route edges="road_1_0_1 road_1_1_1"/>
		</vehicle>
		<vehicle id="164" depart="1087">
			<route edges="road_1_0_1 road_1_1_1"/>
		</vehicle>
		<vehicle id="165" depart="1089">
			<route edges="road_1_2_3 road_1_1_3"/>
		</vehicle>
		<vehicle id="166" depart="1091">
			<route edges="road_1_0_1 road_1_1_1"/>
		</vehicle>
		<vehicle id="167" depart="1092">
			<route edges="road_0_1_0 road_1_1_0"/>
		</vehicle>
		<vehicle id="168" depart="1092">
			<route edges="road_1_2_3 road_1_1_3"/>
		</vehicle>
		<vehicle id="169" depart="1094">
			<route edges="road_1_2_3 road_1_1_3"/>
		</vehicle>
		<vehicle id="170" depart="1095">
			<route edges="road_1_0_1 road_1_1_1"/>
		</vehicle>
		<vehicle id="171" depart="1096">
			<route edges="road_1_0_1 road_1_1_1"/>
		</vehicle>
		<vehicle id="172" depart="1096">
			<route edges="road_1_2_3 road_1_1_3"/>
		</vehicle>
		<vehicle id="173" depart="1097">
			<route edges="road_2_1_2 road_1_1_2"/>
		</vehicle>
		<vehicle id="174" depart="1097">
			<route edges="road_2_1_2 road_1_1_3"/>
		</vehicle>
		<vehicle id="175" depart="1107">
			<route edges="road_1_0_1 road_1_1_1"/>
		</vehicle>
		<vehicle id="176" depart="1108">
			<route edges="road_1_0_1 road_1_1_1"/>
		</vehicle>
		<vehicle id="177" depart="1110">
			<route edges="road_1_0_1 road_1_1_1"/>
		</vehicle>
		<vehicle id="178" depart="1114">
			<route edges="road_1_0_1 road_1_1_1"/>
		</vehicle>
		<vehicle id="179" depart="1126">
			<route edges="road_1_0_1 road_1_1_1"/>
		</vehicle>
		<vehicle id="180" depart="1130">
			<route edges="road_1_0_1 road_1_1_1"/>
		</vehicle>
		<vehicle id="181" depart="1138">
			<route edges="road_0_1_0 road_1_1_0"/>
		</vehicle>
		<vehicle id="182" depart="1138">
			<route edges="road_0_1_0 road_1_1_1"/>
		</vehicle>
		<vehicle id="183" depart="1150">
			<route edges="road_1_0_1 road_1_1_1"/>
		</vehicle>
		<vehicle id="184" depart="1164">
			<route edges="road_0_1_0 road_1_1_0"/>
		</vehicle>
		<vehicle id="185" depart="1173">
			<route edges="road_1_2_3 road_1_1_3"/>
		</vehicle>
		<vehicle id="186" depart="1175">
			<route edges="road_1_0_1 road_1_1_1"/>
		</vehicle>
		<vehicle id="187" depart="1177">
			<route edges="road_1_0_1 road_1_1_1"/>
		</vehicle>
		<vehicle id="188" depart="1180">
			<route edges="road_1_0_1 road_1_1_1"/>
		</vehicle>
		<vehicle id="189" depart="1180">
			<route edges="road_1_0_1 road_1_1_2"/>
		</vehicle>
		<vehicle id="190" depart="1184">
			<route edges="road_1_2_3 road_1_1_3"/>
		</vehicle>
		<vehicle id="191" depart="1185">
			<route edges="road_1_0_1 road_1_1_1"/>
		</vehicle>
		<vehicle id="192" depart="1189">
			<route edges="road_1_2_3 road_1_1_3"/>
		</vehicle>
		<vehicle id="193" depart="1189">
			<route edges="road_1_2_3 road_1_1_0"/>
		</vehicle>
		<vehicle id="194" depart="1189">
			<route edges="road_2_1_2 road_1_1_2"/>
		</vehicle>
		<vehicle id="195" depart="1190">
			<route edges="road_1_0_1 road_1_1_1"/>
		</vehicle>
		<vehicle id="196" depart="1193">
			<route edges="road_1_2_3 road_1_1_3"/>
		</vehicle>
		<vehicle id="197" depart="1194">
			<route edges="road_1_2_3 road_1_1_3"/>
		</vehicle>
		<vehicle id="198" depart="1194">
			<route edges="road_1_2_3 road_1_1_0"/>
		</vehicle>
		<vehicle id="199" depart="1195">
			<route edges="road_1_0_1 road_1_1_1"/>
		</vehicle>
		<vehicle id="200" depart="1196">
			<route edges="road_1_0_1 road_1_1_1"/>
		</vehicle>
		<vehicle id="201" depart="1196">
			<route edges="road_1_2_3 road_1_1_3"/>
		</vehicle>
		<vehicle id="202" depart="1199">
			<route edges="road_1_2_3 road_1_1_3"/>
		</vehicle>
		<vehicle id="203" depart="1201">
			<route edges="road_1_0_1 road_1_1_1"/>
		</vehicle>
		<vehicle id="204" depart="1203">
			<route edges="road_1_0_1 road_1_1_1"/>
		</vehicle>
		<vehicle id="205" depart="1204">
			<route edges="road_1_2_3 road_1_1_3"/>
		</vehicle>
		<vehicle id="206" depart="1205">
			<route edges="road_1_0_1 road_1_1_1"/>
		</vehicle>
		<vehicle id="207" depart="1205">
			<route edges="road_1_0_1 road_1_1_2"/>
		</vehicle>
		<vehicle id="208" depart="1206">
			<route edges="road_1_2_3 road_1_1_3"/>
		</vehicle>
		<vehicle id="209" depart="1206">
			<route edges="road_0_1_0 road_1_1_0"/>
		</vehicle>
		<vehicle id="210" depart="1210">
			<route edges="road_1_0_1 road_1_1_1"/>
		</vehicle>
		<vehicle id="211" depart="1217">
			<route edges="road_2_1_2 road_1_1_2"/>
		</vehicle>
		<vehicle id="212" depart="1220">
			<route edges="road_1_0_1 road_1_1_1"/>
		</vehicle>
		<vehicle id="213" depart="1220">
			<route edges="road_2_1_2 road_1_1_2"/>
		</vehicle>
		<vehicle id="214" depart="1221">
			<route edges="road_1_0_1 road_1_1_1"/>
		</vehicle>
		<vehicle id="215" depart="1263">
			<route edges="road_1_0_1 road_1_1_1"/>
		</vehicle>
		<vehicle id="216" depart="1266">
			<route edges="road_0_1_0 road_1_1_0"/>
		</vehicle>
		<vehicle id="217" depart="1270">
			<route edges="road_1_0_1 road_1_1_1"/>
		</vehicle>
		<vehicle id="218" depart="1273">
			<route edges="road_1_0_1 road_1_1_1"/>
		</vehicle>
		<vehicle id="219" depart="1276">
			<route edges="road_1_0_1 road_1_1_1"/>
		</vehicle>
		<vehicle id="220" depart="1278">
			<route edges="road_1_0_1 road_1_1_1"/>
		</vehicle>
		<vehicle id="221" depart="1282">
			<route edges="road_1_0_1 road_1_1_1"/>
		</vehicle>
		<vehicle id="222" depart="1284">
			<route edges="road_1_2_3 road_1_1_3"/>
		</vehicle>
		<vehicle id="223" depart="1287">
			<route edges="road_1_0_1 road_1_1_1"/>
		</vehicle>
		<vehicle id="224" depart="1293">
			<route edges="road_1_0_1 road_1_1_1"/>
		</vehicle>
		<vehicle id="225" depart="1298">
			<route edges="road_1_0_1 road_1_1_1"/>
		</vehicle>
		<vehicle id="226" depart="1298">
			<route edges="road_1_0_1 road_1_1_2"/>
		</vehicle>
		<vehicle id="227" depart="1299">
			<route edges="road_0_1_0 road_1_1_0"/>
		</vehicle>
		<vehicle id="228" depart="1304">
			<route edges="road_0_1_0 road_1_1_0"/>
		</vehicle>
		<vehicle id="229" depart="1318">
			<route edges="road_1_0_1 road_1_1_1"/>
		</vehicle>
		<vehicle id="230" depart="1322">
			<route edges="road_1_0_1 road_1_1_1"/>
		</vehicle>
		<vehicle id="231" depart="1340">
			<route edges="road_1_2_3 road_1_1_3"/>
		</vehicle>
		<vehicle id="232" depart="1375">
			<route edges="road_1_0_1 road_1_1_1"/>
		</vehicle>
		<vehicle id="233" depart="1377">
			<route edges="road_0_1_0 road_1_1_0"/>
		</vehicle>
		<vehicle id="234" depart="1390">
			<route edges="road_1_0_1 road_1_1_1"/>
		</vehicle>
		<vehicle id="235" depart="1392">
			<route edges="road_1_2_3 road_1_1_3"/>
		</vehicle>
		<vehicle id="236" depart="1393">
			<route edges="road_0_1_0 road_1_1_0"/>
		</vehicle>
		<vehicle id="237" depart="1393">
			<route edges="road_0_1_0 road_1_1_1"/>
		</vehicle>
		<vehicle id="238" depart="1398">
			<route edges="road_1_0_1 road_1_1_1"/>
		</vehicle>
		<vehicle id="239" depart="1399">
			<route edges="road_1_2_3 road_1_1_3"/>
		</vehicle>
		<vehicle id="240" depart="1399">
			<route edges="road_1_2_3 road_1_1_3"/>
		</vehicle>
		<vehicle id="241" depart="1402">
			<route edges="road_1_2_3 road_1_1_3"/>
		</vehicle>
		<vehicle id="242" depart="1404">
			<route edges="road_1_0_1 road_1_1_1"/>
		</vehicle>
		<vehicle id="243" depart="1404">
			<route edges="road_1_0_1 road_1_1_1"/>
		</vehicle>
		<vehicle id="244" depart="1408">
			<route edges="road_1_0_1 road_1_1_1"/>
		</vehicle>
		<vehicle id="245" depart="1410">
			<route edges="road_1_0_1 road_1_1_1"/>
		</vehicle>
		<vehicle id="246" depart="1418">
			<route edges="road_1_0_1 road_1_1_1"/>
		</vehicle>
		<vehicle id="247" depart="1421">
			<route edges="road_1_0_1 road_1_1_1"/>
		</vehicle>
		<vehicle id="248" depart="1424">
			<route edges="road_1_0_1 road_1_1_1"/>
		</vehicle>
		<vehicle id="249" depart="1436">
			<route edges="road_1_0_1 road_1_1_1"/>
		</vehicle>
		<vehicle id="250" depart="1466">
			<route edges="road_0_1_0 road_1_1_0"/>
		</vehicle>
		<vehicle id="251" depart="1467">
			<route edges="road_0_1_0 road_1_1_0"/>
		</vehicle>
		<vehicle id="252" depart="1473">
			<route edges="road_2_1_2 road_1_1_2"/>
		</vehicle>
		<vehicle id="253" depart="1478">
			<route edges="road_1_0_1 road_1_1_1"/>
		</vehicle>
		<vehicle id="254" depart="1478">
			<route edges="road_1_0_1 road_1_1_2"/>
		</vehicle>
		<vehicle id="255" depart="1481">
			<route edges="road_1_0_1 road_1_1_1"/>
		</vehicle>
		<vehicle id="256" depart="1481">
			<route edges="road_1_0_1 road_1_1_2"/>
		</vehicle>
		<vehicle id="257" depart="1502">
			<route edges="road_1_0_1 road_1_1_1"/>
		</vehicle>
		<vehicle id="258" depart="1504">
			<route edges="road_1_0_1 road_1_1_1"/>
		</vehicle>
		<vehicle id="259" depart="1515">
			<route edges="road_1_2_3 road_1_1_3"/>
		</vehicle>
		<vehicle id="260" depart="1519">
			<route edges="road_1_0_1 road_1_1_1"/>
		</vehicle>
		<vehicle id="261" depart="1519">
			<route edges="road_1_0_1 road_1_1_1"/>
		</vehicle>
		<vehicle id="262" depart="1525">
			<route edges="road_1_2_3 road_1_1_3"/>
		</vehicle>
		<vehicle id="263" depart="1526">
			<route edges="road_2_1_2 road_1_1_2"/>
		</vehicle>
		<vehicle id="264" depart="1539">
			<route edges="road_0_1_0 road_1_1_0"/>
		</vehicle>
		<vehicle id="265" depart="1555">
			<route edges="road_1_2_3 road_1_1_3"/>
		</vehicle>
		<vehicle id="266" depart="1575">
			<route edges="road_2_1_2 road_1_1_2"/>
		</vehicle>
		<vehicle id="267" depart="1575">
			<route edges="road_2_1_2 road_1_1_3"/>
		</vehicle>
		<vehicle id="268" depart="1577">
			<route edges="road_0_1_0 road_1_1_0"/>
		</vehicle>
		<vehicle id="269" depart="1595">
			<route edges="road_1_0_1 road_1_1_1"/>
		</vehicle>
		<vehicle id="270" depart="1600">
			<route edges="road_1_0_1 road_1_1_1"/>
		</vehicle>
		<vehicle id="271" depart="1614">
			<route edges="road_0_1_0 road_1_1_0"/>
		</vehicle>
		<vehicle id="272" depart="1614">
			<route edges="road_1_0_1 road_1_1_1"/>
		</vehicle>
		<vehicle id="273" depart="1614">
			<route edges="road_1_0_1 road_1_1_2"/>
		</vehicle>
		<vehicle id="274" depart="1619">
			<route edges="road_1_0_1 road_1_1_1"/>
		</vehicle>
		<vehicle id="275" depart="1621">
			<route edges="road_1_0_1 road_1_1_1"/>
		</vehicle>
		<vehicle id="276" depart="1626">
			<route edges="road_1_0_1 road_1_1_1"/>
		</vehicle>
		<vehicle id="277" depart="1627">
			<route edges="road_1_2_3 road_1_1_3"/>
		</vehicle>
		<vehicle id="278" depart="1628">
			<route edges="road_1_0_1 road_1_1_1"/>
		</vehicle>
		<vehicle id="279" depart="1630">
			<route edges="road_1_2_3 road_1_1_3"/>
		</vehicle>
		<vehicle id="280" depart="1636">
			<route edges="road_1_0_1 road_1_1_1"/>
		</vehicle>
		<vehicle id="281" depart="1644">
			<route edges="road_0_1_0 road_1_1_0"/>
		</vehicle>
		<vehicle id="282" depart="1644">
			<route edges="road_1_0_1 road_1_1_1"/>
		</vehicle>
		<vehicle id="283" depart="1647">
			<route edges="road_1_0_1 road_1_1_1"/>
		</vehicle>
		<vehicle id="284" depart="1650">
			<route edges="road_1_0_1 road_1_1_1"/>
		</vehicle>
		<vehicle id="285" depart="1652">
			<route edges="road_1_0_1 road_1_1_1"/>
		</vehicle>
		<vehicle id="286" depart="1653">
			<route edges="road_1_0_1 road_1_1_1"/>
		</vehicle>
		<vehicle id="287" depart="1658">
			<route edges="road_2_1_2 road_1_1_2"/>
		</vehicle>
		<vehicle id="288" depart="1659">
			<route edges="road_0_1_0 road_1_1_0"/>
		</vehicle>
		<vehicle id="289" depart="1660">
			<route edges="road_1_0_1 road_1_1_1"/>
		</vehicle>
		<vehicle id="290" depart="1669">
			<route edges="road_1_2_3 road_1_1_3"/>
		</vehicle>
		<vehicle id="291" depart="1679">
			<route edges="road_1_2_3 road_1_1_3"/>
		</vehicle>
		<vehicle id="292" depart="1682">
			<route edges="road_0_1_0 road_1_1_0"/>
		</vehicle>
		<vehicle id="293" depart="1693">
			<route edges="road_0_1_0 road_1_1_0"/>
		</vehicle>
		<vehicle id="294" depart="1707">
			<route edges="road_1_2_3 road_1_1_3"/>
		</vehicle>
		<vehicle id="295" depart="1732">
			<route edges="road_1_0_1 road_1_1_1"/>
		</vehicle>
		<vehicle id="296" depart="1733">
			<route edges="road_1_0_1 road_1_1_1"/>
		</vehicle>
		<vehicle id="297" depart="1736">
			<route edges="road_2_1_2 road_1_1_2"/>
		</vehicle>
		<vehicle id="298" depart="1737">
			<route edges="road_1_0_1 road_1_1_1"/>
		</vehicle>
		<vehicle id="299" depart="1739">
			<route edges="road_0_1_0 road_1_1_0"/>
		</vehicle>
		<vehicle id="300" depart="1739">
			<route edges="road_1_0_1 road_1_1_1"/>
		</vehicle>
		<vehicle id="301" depart="1740">
			<route edges="road_1_0_1 road_1_1_1"/>
		</vehicle>
		<vehicle id="302" depart="1741">
			<route edges="road_1_0_1 road_1_1_1"/>
		</vehicle>
		<vehicle id="303" depart="1741">
			<route edges="road_0_1_0 road_1_1_0"/>
		</vehicle>
		<vehicle id="304" depart="1744">
			<route edges="road_1_0_1 road_1_1_1"/>
		</vehicle>
		<vehicle id="305" depart="1747">
			<route edges="road_1_0_1 road_1_1_1"/>
		</vehicle>
		<vehicle id="306" depart="1747">
			<route edges="road_1_0_1 road_1_1_1"/>
		</vehicle>
		<vehicle id="307" depart="1747">
			<route edges="road_1_0_1 road_1_1_1"/>
		</vehicle>
		<vehicle id="308" depart="1749">
			<route edges="road_1_2_3 road_1_1_3"/>
		</vehicle>
		<vehicle id="309" depart="1759">
			<route edges="road_1_0_1 road_1_1_1"/>
		</vehicle>
		<vehicle id="310" depart="1761">
			<route edges="road_1_0_1 road_1_1_1"/>
		</vehicle>
		<vehicle id="311" depart="1761">
			<route edges="road_0_1_0 road_1_1_0"/>
		</vehicle>
		<vehicle id="312" depart="1768">
			<route edges="road_1_0_1 road_1_1_1"/>
		</vehicle>
		<vehicle id="313" depart="1768">
			<route edges="road_1_0_1 road_1_1_2"/>
		</vehicle>
		<vehicle id="314" depart="1773">
			<route edges="road_1_0_1 road_1_1_1"/>
		</vehicle>
		<vehicle id="315" depart="1773">
			<route edges="road_1_0_1 road_1_1_1"/>
		</vehicle>
		<vehicle id="316" depart="1776">
			<route edges="road_1_0_1 road_1_1_1"/>
		</vehicle>
		<vehicle id="317" depart="1778">
			<route edges="road_1_0_1 road_1_1_1"/>
		</vehicle>
		<vehicle id="318" depart="1778">
			<route edges="road_1_0_1 road_1_1_1"/>
		</vehicle>
		<vehicle id="319" depart="1792">
			<route edges="road_0_1_0 road_1_1_0"/>
		</vehicle>
		<vehicle id="320" depart="1794">
			<route edges="road_0_1_0 road_1_1_0"/>
		</vehicle>
		<vehicle id="321" depart="1810">
			<route edges="road_2_1_2 road_1_1_2"/>
		</vehicle>
		<vehicle id="322" depart="1811">
			<route edges="road_0_1_0 road_1_1_0"/>
		</vehicle>
		<vehicle id="323" depart="1813">
			<route edges="road_1_0_1 road_1_1_1"/>
		</vehicle>
		<vehicle id="324" depart="1817">
			<route edges="road_0_1_0 road_1_1_0"/>
		</vehicle>
		<vehicle id="325" depart="1823">
			<route edges="road_2_1_2 road_1_1_2"/>
		</vehicle>
		<vehicle id="326" depart="1828">
			<route edges="road_1_2_3 road_1_1_3"/>
		</vehicle>
		<vehicle id="327" depart="1828">
			<route edges="road_1_2_3 road_1_1_0"/>
		</vehicle>
		<vehicle id="328" depart="1834">
			<route edges="road_1_0_1 road_1_1_1"/>
		</vehicle>
		<vehicle id="329" depart="1836">
			<route edges="road_1_2_3 road_1_1_3"/>
		</vehicle>
		<vehicle id="330" depart="1836">
			<route edges="road_1_0_1 road_1_1_1"/>
		</vehicle>
		<vehicle id="331" depart="1839">
			<route edges="road_1_2_3 road_1_1_3"/>
		</vehicle>
		<vehicle id="332" depart="1843">
			<route edges="road_1_0_1 road_1_1_1"/>
		</vehicle>