<?xml version="1.0" encoding="utf-8"?>
	<routes xmlns:xsi="http://www.w3.org/2001/XMLSchema-instance" xsi:noNamespaceSchemaLocation="http://sumo.dlr.de/xsd/routes_file.xsd">
		<vType id="pkw" length="5.0" width="2.0" minGap="2.5" maxSpeed="11.111" accel="2.0" decel="4.5"/>
		<vehicle id="0" depart="0">
			<route edges="road_1_2_3 road_1_1_3"/>
		</vehicle>
		<vehicle id="1" depart="1">
			<route edges="road_1_0_1 road_1_1_1"/>
		</vehicle>
		<vehicle id="2" depart="3">
			<route edges="road_1_0_1 road_1_1_1"/>
		</vehicle>
		<vehicle id="3" depart="5">
			<route edges="road_1_0_1 road_1_1_1"/>
		</vehicle>
		<vehicle id="4" depart="5">
			<route edges="road_1_0_1 road_1_1_2"/>
		</vehicle>
		<vehicle id="5" depart="25">
			<route edges="road_1_2_3 road_1_1_3"/>
		</vehicle>
		<vehicle id="6" depart="33">
			<route edges="road_2_1_2 road_1_1_2"/>
		</vehicle>
		<vehicle id="7" depart="33">
			<route edges="road_2_1_2 road_1_1_3"/>
		</vehicle>
		<vehicle id="8" depart="35">
			<route edges="road_0_1_0 road_1_1_0"/>
		</vehicle>
		<vehicle id="9" depart="38">
			<route edges="road_2_1_2 road_1_1_2"/>
		</vehicle>
		<vehicle id="10" depart="42">
			<route edges="road_1_2_3 road_1_1_3"/>
		</vehicle>
		<vehicle id="11" depart="48">
			<route edges="road_2_1_2 road_1_1_2"/>
		</vehicle>
		<vehicle id="12" depart="50">
			<route edges="road_0_1_0 road_1_1_0"/>
		</vehicle>
		<vehicle id="13" depart="50">
			<route edges="road_0_1_0 road_1_1_1"/>
		</vehicle>
		<vehicle id="14" depart="51">
			<route edges="road_2_1_2 road_1_1_2"/>
		</vehicle>
		<vehicle id="15" depart="53">
			<route edges="road_2_1_2 road_1_1_2"/>
		</vehicle>
		<vehicle id="16" depart="60">
			<route edges="road_0_1_0 road_1_1_0"/>
		</vehicle>
		<vehicle id="17" depart="63">
			<route edges="road_2_1_2 road_1_1_2"/>
		</vehicle>
		<vehicle id="18" depart="66">
			<route edges="road_0_1_0 road_1_1_0"/>
		</vehicle>
		<vehicle id="19" depart="66">
			<route edges="road_2_1_2 road_1_1_2"/>
		</vehicle>
		<vehicle id="20" depart="66">
			<route edges="road_2_1_2 road_1_1_3"/>
		</vehicle>
		<vehicle id="21" depart="68">
			<route edges="road_2_1_2 road_1_1_2"/>
		</vehicle>
		<vehicle id="22" depart="69">
			<route edges="road_0_1_0 road_1_1_0"/>
		</vehicle>
		<vehicle id="23" depart="69">
			<route edges="road_0_1_0 road_1_1_0"/>
		</vehicle>
		<vehicle id="24" depart="72">
			<route edges="road_2_1_2 road_1_1_2"/>
		</vehicle>
		<vehicle id="25" depart="72">
			<route edges="road_2_1_2 road_1_1_3"/>
		</vehicle>
		<vehicle id="26" depart="76">
			<route edges="road_2_1_2 road_1_1_2"/>
		</vehicle>
		<vehicle id="27" depart="82">
			<route edges="road_2_1_2 road_1_1_2"/>
		</vehicle>
		<vehicle id="28" depart="85">
			<route edges="road_0_1_0 road_1_1_0"/>
		</vehicle>
		<vehicle id="29" depart="85">
			<route edges="road_0_1_0 road_1_1_1"/>
		</vehicle>
		<vehicle id="30" depart="107">
			<route edges="road_1_0_1 road_1_1_1"/>
		</vehicle>
		<vehicle id="31" depart="128">
			<route edges="road_1_2_3 road_1_1_3"/>
		</vehicle>
		<vehicle id="32" depart="128">
			<route edges="road_1_0_1 road_1_1_1"/>
		</vehicle>
		<vehicle id="33" depart="130">
			<route edges="road_1_0_1 road_1_1_1"/>
		</vehicle>
		<vehicle id="34" depart="132">
			<route edges="road_1_0_1 road_1_1_1"/>
		</vehicle>
		<vehicle id="35" depart="135">
			<route edges="road_1_2_3 road_1_1_3"/>
		</vehicle>
		<vehicle id="36" depart="145">
			<route edges="road_1_2_3 road_1_1_3"/>
		</vehicle>
		<vehicle id="37" depart="151">
			<route edges="road_2_1_2 road_1_1_2"/>
		</vehicle>
		<vehicle id="38" depart="162">
			<route edges="road_0_1_0 road_1_1_0"/>
		</vehicle>
		<vehicle id="39" depart="166">
			<route edges="road_2_1_2 road_1_1_2"/>
		</vehicle>
		<vehicle id="40" depart="166">
			<route edges="road_1_2_3 road_1_1_3"/>
		</vehicle>
		<vehicle id="41" depart="166">
			<route edges="road_0_1_0 road_1_1_0"/>
		</vehicle>
		<vehicle id="42" depart="171">
			<route edges="road_0_1_0 road_1_1_0"/>
		</vehicle>
		<vehicle id="43" depart="191">
			<route edges="road_0_1_0 road_1_1_0"/>
		</vehicle>
		<vehicle id="44" depart="194">
			<route edges="road_0_1_0 road_1_1_0"/>
		</vehicle>
		<vehicle id="45" depart="195">
			<route edges="road_0_1_0 road_1_1_0"/>
		</vehicle>
		<vehicle id="46" depart="195">
			<route edges="road_0_1_0 road_1_1_1"/>
		</vehicle>
		<vehicle id="47" depart="198">
			<route edges="road_0_1_0 road_1_1_0"/>
		</vehicle>
		<vehicle id="48" depart="199">
			<route edges="road_0_1_0 road_1_1_0"/>
		</vehicle>
		<vehicle id="49" depart="200">
			<route edges="road_2_1_2 road_1_1_2"/>
		</vehicle>
		<vehicle id="50" depart="201">
			<route edges="road_0_1_0 road_1_1_0"/>
		</vehicle>
		<vehicle id="51" depart="201">
			<route edges="road_0_1_0 road_1_1_1"/>
		</vehicle>
		<vehicle id="52" depart="204">
			<route edges="road_2_1_2 road_1_1_2"/>
		</vehicle>
		<vehicle id="53" depart="207">
			<route edges="road_2_1_2 road_1_1_2"/>
		</vehicle>
		<vehicle id="54" depart="210">
			<route edges="road_2_1_2 road_1_1_2"/>
		</vehicle>
		<vehicle id="55" depart="211">
			<route edges="road_0_1_0 road_1_1_0"/>
		</vehicle>
		<vehicle id="56" depart="215">
			<route edges="road_2_1_2 road_1_1_2"/>
		</vehicle>
		<vehicle id="57" depart="215">
			<route edges="road_2_1_2 road_1_1_3"/>
		</vehicle>
		<vehicle id="58" depart="215">
			<route edges="road_1_2_3 road_1_1_3"/>
		</vehicle>
		<vehicle id="59" depart="226">
			<route edges="road_1_2_3 road_1_1_3"/>
		</vehicle>
		<vehicle id="60" depart="228">
			<route edges="road_1_2_3 road_1_1_3"/>
		</vehicle>
		<vehicle id="61" depart="228">
			<route edges="road_1_2_3 road_1_1_0"/>
		</vehicle>
		<vehicle id="62" depart="231">
			<route edges="road_1_0_1 road_1_1_1"/>
		</vehicle>
		<vehicle id="63" depart="234">
			<route edges="road_1_2_3 road_1_1_3"/>
		</vehicle>
		<vehicle id="64" depart="235">
			<route edges="road_1_2_3 road_1_1_3"/>
		</vehicle>
		<vehicle id="65" depart="237">
			<route edges="road_1_2_3 road_1_1_3"/>
		</vehicle>
		<vehicle id="66" depart="240">
			<route edges="road_1_2_3 road_1_1_3"/>
		</vehicle>
		<vehicle id="67" depart="256">
			<route edges="road_1_2_3 road_1_1_3"/>
		</vehicle>
		<vehicle id="68" depart="256">
			<route edges="road_1_2_3 road_1_1_3"/>
		</vehicle>
		<vehicle id="69" depart="260">
			<route edges="road_1_2_3 road_1_1_3"/>
		</vehicle>
		<vehicle id="70" depart="261">
			<route edges="road_1_0_1 road_1_1_1"/>
		</vehicle>
		<vehicle id="71" depart="268">
			<route edges="road_1_0_1 road_1_1_1"/>
		</vehicle>
		<vehicle id="72" depart="272">
			<route edges="road_1_0_1 road_1_1_1"/>
		</vehicle>
		<vehicle id="73" depart="275">
			<route edges="road_1_0_1 road_1_1_1"/>
		</vehicle>
		<vehicle id="74" depart="275">
			<route edges="road_1_0_1 road_1_1_2"/>
		</vehicle>
		<vehicle id="75" depart="293">
			<route edges="road_1_2_3 road_1_1_3"/>
		</vehicle>
		<vehicle id="76" depart="296">
			<route edges="road_2_1_2 road_1_1_2"/>
		</vehicle>
		<vehicle id="77" depart="301">
			<route edges="road_2_1_2 road_1_1_2"/>
		</vehicle>
		<vehicle id="78" depart="302">
			<route edges="road_0_1_0 road_1_1_0"/>
		</vehicle>
		<vehicle id="79" depart="302">
			<route edges="road_0_1_0 road_1_1_1"/>
		</vehicle>
		<vehicle id="80" depart="309">
			<route edges="road_0_1_0 road_1_1_0"/>
		</vehicle>
		<vehicle id="81" depart="312">
			<route edges="road_0_1_0 road_1_1_0"/>
		</vehicle>
		<vehicle id="82" depart="319">
			<route edges="road_0_1_0 road_1_1_0"/>
		</vehicle>
		<vehicle id="83" depart="326">
			<route edges="road_2_1_2 road_1_1_2"/>
		</vehicle>
		<vehicle id="84" depart="335">
			<route edges="road_0_1_0 road_1_1_0"/>
		</vehicle>
		<vehicle id="85" depart="336">
			<route edges="road_0_1_0 road_1_1_0"/>
		</vehicle>
		<vehicle id="86" depart="339">
			<route edges="road_2_1_2 road_1_1_2"/>
		</vehicle>
		<vehicle id="87" depart="339">
			<route edges="road_0_1_0 road_1_1_0"/>
		</vehicle>
		<vehicle id="88" depart="341">
			<route edges="road_0_1_0 road_1_1_0"/>
		</vehicle>
		<vehicle id="89" depart="342">
			<route edges="road_1_0_1 road_1_1_1"/>
		</vehicle>
		<vehicle id="90" depart="348">
			<route edges="road_2_1_2 road_1_1_2"/>
		</vehicle>
		<vehicle id="91" depart="351">
			<route edges="road_0_1_0 road_1_1_0"/>
		</vehicle>
		<vehicle id="92" depart="351">
			<route edges="road_2_1_2 road_1_1_2"/>
		</vehicle>
		<vehicle id="93" depart="366">
			<route edges="road_1_2_3 road_1_1_3"/>
		</vehicle>
		<vehicle id="94" depart="377">
			<route edges="road_2_1_2 road_1_1_2"/>
		</vehicle>
		<vehicle id="95" depart="380">
			<route edges="road_1_2_3 road_1_1_3"/>
		</vehicle>
		<vehicle id="96" depart="380">
			<route edges="road_1_2_3 road_1_1_0"/>
		</vehicle>
		<vehicle id="97" depart="385">
			<route edges="road_0_1_0 road_1_1_0"/>
		</vehicle>
		<vehicle id="98" depart="385">
			<route edges="road_0_1_0 road_1_1_1"/>
		</vehicle>
		<vehicle id="99" depart="402">
			<route edges="road_1_2_3 road_1_1_3"/>
		</vehicle>
		<vehicle id="100" depart="422">
			<route edges="road_1_2_3 road_1_1_3"/>
		</vehicle>
		<vehicle id="101" depart="423">
			<route edges="road_1_0_1 road_1_1_1"/>
		</vehicle>
		<vehicle id="102" depart="426">
			<route edges="road_1_2_3 road_1_1_3"/>
		</vehicle>
		<vehicle id="103" depart="430">
			<route edges="road_2_1_2 road_1_1_2"/>
		</vehicle>
		<vehicle id="104" depart="431">
			<route edges="road_1_2_3 road_1_1_3"/>
		</vehicle>
		<vehicle id="105" depart="434">
			<route edges="road_1_2_3 road_1_1_3"/>
		</vehicle>
		<vehicle id="106" depart="446">
			<route edges="road_2_1_2 road_1_1_2"/>
		</vehicle>
		<vehicle id="107" depart="461">
			<route edges="road_2_1_2 road_1_1_2"/>
		</vehicle>
		<vehicle id="108" depart="464">
			<route edges="road_1_0_1 road_1_1_1"/>
		</vehicle>
		<vehicle id="109" depart="485">
			<route edges="road_0_1_0 road_1_1_0"/>
		</vehicle>
		<vehicle id="110" depart="487">
			<route edges="road_2_1_2 road_1_1_2"/>
		</vehicle>
		<vehicle id="111" depart="488">
			<route edges="road_2_1_2 road_1_1_2"/>
		</vehicle>
		<vehicle id="112" depart="491">
			<route edges="road_0_1_0 road_1_1_0"/>
		</vehicle>
		<vehicle id="113" depart="502">
			<route edges="road_2_1_2 road_1_1_2"/>
		</vehicle>
		<vehicle id="114" depart="502">
			<route edges="road_2_1_2 road_1_1_3"/>
		</vehicle>
		<vehicle id="115" depart="503">
			<route edges="road_1_0_1 road_1_1_1"/>
		</vehicle>
		<vehicle id="116" depart="503">
			<route edges="road_1_2_3 road_1_1_3"/>
		</vehicle>
		<vehicle id="117" depart="505">
			<route edges="road_2_1_2 road_1_1_2"/>
		</vehicle>
		<vehicle id="118" depart="511">
			<route edges="road_0_1_0 road_1_1_0"/>
		</vehicle>
		<vehicle id="119" depart="518">
			<route edges="road_2_1_2 road_1_1_2"/>
		</vehicle>
		<vehicle id="120" depart="519">
			<route edges="road_0_1_0 road_1_1_0"/>
		</vehicle>
		<vehicle id="121" depart="519">
			<route edges="road_0_1_0 road_1_1_1"/>
		</vehicle>
		<vehicle id="122" depart="525">
			<route edges="road_0_1_0 road_1_1_0"/>
		</vehicle>
		<vehicle id="123" depart="528">
			<route edges="road_0_1_0 road_1_1_0"/>
		</vehicle>
		<vehicle id="124" depart="530">
			<route edges="road_2_1_2 road_1_1_2"/>
		</vehicle>
		<vehicle id="125" depart="531">
			<route edges="road_2_1_2 road_1_1_2"/>
		</vehicle>
		<vehicle id="126" depart="532">
			<route edges="road_2_1_2 road_1_1_2"/>
		</vehicle>
		<vehicle id="127" depart="532">
			<route edges="road_2_1_2 road_1_1_3"/>
		</vehicle>
		<vehicle id="128" depart="534">
			<route edges="road_0_1_0 road_1_1_0"/>
		</vehicle>
		<vehicle id="129" depart="535">
			<route edges="road_2_1_2 road_1_1_2"/>
		</vehicle>
		<vehicle id="130" depart="536">
			<route edges="road_0_1_0 road_1_1_0"/>
		</vehicle>
		<vehicle id="131" depart="536">
			<route edges="road_2_1_2 road_1_1_2"/>
		</vehicle>
		<vehicle id="132" depart="537">
			<route edges="road_2_1_2 road_1_1_2"/>
		</vehicle>
		<vehicle id="133" depart="538">
			<route edges="road_2_1_2 road_1_1_2"/>
		</vehicle>
		<vehicle id="134" depart="539">
			<route edges="road_2_1_2 road_1_1_2"/>
		</vehicle>
		<vehicle id="135" depart="543">
			<route edges="road_2_1_2 road_1_1_2"/>
		</vehicle>
		<vehicle id="136" depart="544">
			<route edges="road_2_1_2 road_1_1_2"/>
		</vehicle>
		<vehicle id="137" depart="545">
			<route edges="road_2_1_2 road_1_1_2"/>
		</vehicle>
		<vehicle id="138" depart="545">
			<route edges="road_2_1_2 road_1_1_3"/>
		</vehicle>
		<vehicle id="139" depart="548">
			<route edges="road_2_1_2 road_1_1_2"/>
		</vehicle>
		<vehicle id="140" depart="555">
			<route edges="road_2_1_2 road_1_1_2"/>
		</vehicle>
		<vehicle id="141" depart="559">
			<route edges="road_2_1_2 road_1_1_2"/>
		</vehicle>
		<vehicle id="142" depart="563">
			<route edges="road_2_1_2 road_1_1_2"/>
		</vehicle>
		<vehicle id="143" depart="567">
			<route edges="road_2_1_2 road_1_1_2"/>
		</vehicle>
		<vehicle id="144" depart="567">
			<route edges="road_2_1_2 road_1_1_3"/>
		</vehicle>
		<vehicle id="145" depart="572">
			<route edges="road_0_1_0 road_1_1_0"/>
		</vehicle>
		<vehicle id="146" depart="572">
			<route edges="road_0_1_0 road_1_1_1"/>
		</vehicle>
		<vehicle id="147" depart="580">
			<route edges="road_1_2_3 road_1_1_3"/>
		</vehicle>
		<vehicle id="148" depart="614">
			<route edges="road_1_2_3 road_1_1_3"/>
		</vehicle>
		<vehicle id="149" depart="616">
			<route edges="road_1_0_1 road_1_1_1"/>
		</vehicle>
		<vehicle id="150" depart="617">
			<route edges="road_1_2_3 road_1_1_3"/>
		</vehicle>
		<vehicle id="151" depart="617">
			<route edges="road_1_2_3 road_1_1_3"/>
		</vehicle>
		<vehicle id="152" depart="618">
			<route edges="road_1_2_3 road_1_1_3"/>
		</vehicle>
		<vehicle id="153" depart="619">
			<route edges="road_1_2_3 road_1_1_3"/>
		</vehicle>
		<vehicle id="154" depart="619">
			<route edges="road_1_2_3 road_1_1_0"/>
		</vehicle>
		<vehicle id="155" depart="624">
			<route edges="road_1_2_3 road_1_1_3"/>
		</vehicle>
		<vehicle id="156" depart="624">
			<route edges="road_1_2_3 road_1_1_0"/>
		</vehicle>
		<vehicle id="157" depart="628">
			<route edges="road_1_0_1 road_1_1_1"/>
		</vehicle>
		<vehicle id="158" depart="629">
			<route edges="road_1_2_3 road_1_1_3"/>
		</vehicle>
		<vehicle id="159" depart="629">
			<route edges="road_1_2_3 road_1_1_0"/>
		</vehicle>
		<vehicle id="160" depart="633">
			<route edges="road_2_1_2 road_1_1_2"/>
		</vehicle>
		<vehicle id="161" depart="634">
			<route edges="road_2_1_2 road_1_1_2"/>
		</vehicle>
		<vehicle id="162" depart="637">
			<route edges="road_1_0_1 road_1_1_1"/>
		</vehicle>
		<vehicle id="163" depart="637">
			<route edges="road_1_0_1 road_1_1_2"/>
		</vehicle>
		<vehicle id="164" depart="663">
			<route edges="road_1_2_3 road_1_1_3"/>
		</vehicle>
		<vehicle id="165" depart="672">
			<route edges="road_0_1_0 road_1_1_0"/>
		</vehicle>
		<vehicle id="166" depart="673">
			<route edges="road_1_2_3 road_1_1_3"/>
		</vehicle>
		<vehicle id="167" depart="677">
			<route edges="road_2_1_2 road_1_1_2"/>
		</vehicle>
		<vehicle id="168" depart="680">
			<route edges="road_2_1_2 road_1_1_2"/>
		</vehicle>
		<vehicle id="169" depart="680">
			<route edges="road_1_2_3 road_1_1_3"/>
		</vehicle>
		<vehicle id="170" depart="684">
			<route edges="road_1_2_3 road_1_1_3"/>
		</vehicle>
		<vehicle id="171" depart="685">
			<route edges="road_2_1_2 road_1_1_2"/>
		</vehicle>
		<vehicle id="172" depart="688">
			<route edges="road_2_1_2 road_1_1_2"/>
		</vehicle>
		<vehicle id="173" depart="695">
			<route edges="road_2_1_2 road_1_1_2"/>
		</vehicle>
		<vehicle id="174" depart="699">
			<route edges="road_2_1_2 road_1_1_2"/>
		</vehicle>
		<vehicle id="175" depart="700">
			<route edges="road_2_1_2 road_1_1_2"/>
		</vehicle>
		<vehicle id="176" depart="705">
			<route edges="road_2_1_2 road_1_1_2"/>
		</vehicle>
		<vehicle id="177" depart="705">
			<route edges="road_2_1_2 road_1_1_3"/>
		</vehicle>
		<vehicle id="178" depart="707">
			<route edges="road_2_1_2 road_1_1_2"/>
		</vehicle>
		<vehicle id="179" depart="707">
			<route edges="road_2_1_2 road_1_1_3"/>
		</vehicle>
		<vehicle id="180" depart="708">
			<route edges="road_0_1_0 road_1_1_0"/>
		</vehicle>
		<vehicle id="181" depart="708">
			<route edges="road_2_1_2 road_1_1_2"/>
		</vehicle>
		<vehicle id="182" depart="709">
			<route edges="road_2_1_2 road_1_1_2"/>
		</vehicle>
		<vehicle id="183" depart="709">
			<route edges="road_2_1_2 road_1_1_3"/>
		</vehicle>
		<vehicle id="184" depart="710">
			<route edges="road_2_1_2 road_1_1_2"/>
		</vehicle>
		<vehicle id="185" depart="710">
			<route edges="road_0_1_0 road_1_1_0"/>
		</vehicle>
		<vehicle id="186" depart="713">
			<route edges="road_0_1_0 road_1_1_0"/>
		</vehicle>
		<vehicle id="187" depart="713">
			<route edges="road_2_1_2 road_1_1_2"/>
		</vehicle>
		<vehicle id="188" depart="713">
			<route edges="road_0_1_0 road_1_1_0"/>
		</vehicle>
		<vehicle id="189" depart="715">
			<route edges="road_0_1_0 road_1_1_0"/>
		</vehicle>
		<vehicle id="190" depart="719">
			<route edges="road_2_1_2 road_1_1_2"/>
		</vehicle>
		<vehicle id="191" depart="720">
			<route edges="road_0_1_0 road_1_1_0"/>
		</vehicle>
		<vehicle id="192" depart="720">
			<route edges="road_0_1_0 road_1_1_0"/>
		</vehicle>
		<vehicle id="193" depart="721">
			<route edges="road_0_1_0 road_1_1_0"/>
		</vehicle>
		<vehicle id="194" depart="721">
			<route edges="road_0_1_0 road_1_1_0"/>
		</vehicle>
		<vehicle id="195" depart="721">
			<route edges="road_0_1_0 road_1_1_1"/>
		</vehicle>
		<vehicle id="196" depart="721">
			<route edges="road_2_1_2 road_1_1_2"/>
		</vehicle>
		<vehicle id="197" depart="722">
			<route edges="road_0_1_0 road_1_1_0"/>
		</vehicle>
		<vehicle id="198" depart="722">
			<route edges="road_0_1_0 road_1_1_1"/>
		</vehicle>
		<vehicle id="199" depart="723">
			<route edges="road_2_1_2 road_1_1_2"/>
		</vehicle>
		<vehicle id="200" depart="724">
			<route edges="road_0_1_0 road_1_1_0"/>
		</vehicle>
		<vehicle id="201" depart="724">
			<route edges="road_0_1_0 road_1_1_1"/>
		</vehicle>
		<vehicle id="202" depart="724">
			<route edges="road_2_1_2 road_1_1_2"/>
		</vehicle>
		<vehicle id="203" depart="727">
			<route edges="road_0_1_0 road_1_1_0"/>
		</vehicle>
		<vehicle id="204" depart="732">
			<route edges="road_2_1_2 road_1_1_2"/>
		</vehicle>
		<vehicle id="205" depart="732">
			<route edges="road_2_1_2 road_1_1_2"/>
		</vehicle>
		<vehicle id="206" depart="733">
			<route edges="road_2_1_2 road_1_1_2"/>
		</vehicle>
		<vehicle id="207" depart="734">
			<route edges="road_2_1_2 road_1_1_2"/>
		</vehicle>
		<vehicle id="208" depart="734">
			<route edges="road_2_1_2 road_1_1_2"/>
		</vehicle>
		<vehicle id="209" depart="736">
			<route edges="road_2_1_2 road_1_1_2"/>
		</vehicle>
		<vehicle id="210" depart="736">
			<route edges="road_2_1_2 road_1_1_2"/>
		</vehicle>
		<vehicle id="211" depart="739">
			<route edges="road_2_1_2 road_1_1_2"/>
		</vehicle>
		<vehicle id="212" depart="743">
			<route edges="road_2_1_2 road_1_1_2"/>
		</vehicle>
		<vehicle id="213" depart="745">
			<route edges="road_1_0_1 road_1_1_1"/>
		</vehicle>
		<vehicle id="214" depart="748">
			<route edges="road_1_0_1 road_1_1_1"/>
		</vehicle>
		<vehicle id="215" depart="755">
			<route edges="road_2_1_2 road_1_1_2"/>
		</vehicle>
		<vehicle id="216" depart="795">
			<route edges="road_1_2_3 road_1_1_3"/>
		</vehicle>
		<vehicle id="217" depart="797">
			<route edges="road_1_0_1 road_1_1_1"/>
		</vehicle>
		<vehicle id="218" depart="797">
			<route edges="road_1_2_3 road_1_1_3"/>
		</vehicle>
		<vehicle id="219" depart="797">
			<route edges="road_1_2_3 road_1_1_3"/>
		</vehicle>
		<vehicle id="220" depart="802">
			<route edges="road_1_0_1 road_1_1_1"/>
		</vehicle>
		<vehicle id="221" depart="805">
			<route edges="road_0_1_0 road_1_1_0"/>
		</vehicle>
		<vehicle id="222" depart="808">
			<route edges="road_1_2_3 road_1_1_3"/>
		</vehicle>
		<vehicle id="223" depart="845">
			<route edges="road_0_1_0 road_1_1_0"/>
		</vehicle>
		<vehicle id="224" depart="845">
			<route edges="road_1_2_3 road_1_1_3"/>
		</vehicle>
		<vehicle id="225" depart="847">
			<route edges="road_2_1_2 road_1_1_2"/>
		</vehicle>
		<vehicle id="226" depart="850">
			<route edges="road_2_1_2 road_1_1_2"/>
		</vehicle>
		<vehicle id="227" depart="853">
			<route edges="road_2_1_2 road_1_1_2"/>
		</vehicle>
		<vehicle id="228" depart="856">
			<route edges="road_1_2_3 road_1_1_3"/>
		</vehicle>
		<vehicle id="229" depart="860">
			<route edges="road_1_0_1 road_1_1_1"/>
		</vehicle>
		<vehicle id="230" depart="860">
			<route edges="road_1_0_1 road_1_1_2"/>
		</vehicle>
		<vehicle id="231" depart="860">
			<route edges="road_1_2_3 road_1_1_3"/>
		</vehicle>
		<vehicle id="232" depart="860">
			<route edges="road_2_1_2 road_1_1_2"/>
		</vehicle>
		<vehicle id="233" depart="861">
			<route edges="road_0_1_0 road_1_1_0"/>
		</vehicle>
		<vehicle id="234" depart="861">
			<route edges="road_2_1_2 road_1_1_2"/>
		</vehicle>
		<vehicle id="235" depart="863">
			<route edges="road_0_1_0 road_1_1_0"/>
		</vehicle>
		<vehicle id="236" depart="864">
			<route edges="road_2_1_2 road_1_1_2"/>
		</vehicle>
		<vehicle id="237" depart="866">
			<route edges="road_0_1_0 road_1_1_0"/>
		</vehicle>
		<vehicle id="238" depart="869">
			<route edges="road_2_1_2 road_1_1_2"/>
		</vehicle>
		<vehicle id="239" depart="869">
			<route edges="road_2_1_2 road_1_1_3"/>
		</vehicle>
		<vehicle id="240" depart="870">
			<route edges="road_2_1_2 road_1_1_2"/>
		</vehicle>
		<vehicle id="241" depart="884">
			<route edges="road_0_1_0 road_1_1_0"/>
		</vehicle>
		<vehicle id="242" depart="888">
			<route edges="road_2_1_2 road_1_1_2"/>
		</vehicle>
		<vehicle id="243" depart="890">
			<route edges="road_0_1_0 road_1_1_0"/>
		</vehicle>
		<vehicle id="244" depart="890">
			<route edges="road_0_1_0 road_1_1_1"/>
		</vehicle>
		<vehicle id="245" depart="890">
			<route edges="road_2_1_2 road_1_1_2"/>
		</vehicle>
		<vehicle id="246" depart="890">
			<route edges="road_2_1_2 road_1_1_3"/>
		</vehicle>
		<vehicle id="247" depart="890">
			<route edges="road_0_1_0 road_1_1_0"/>
		</vehicle>
		<vehicle id="248" depart="892">
			<route edges="road_0_1_0 road_1_1_0"/>
		</vehicle>
		<vehicle id="249" depart="893">
			<route edges="road_0_1_0 road_1_1_0"/>
		</vehicle>
		<vehicle id="250" depart="895">
			<route edges="road_0_1_0 road_1_1_0"/>
		</vehicle>
		<vehicle id="251" depart="896">
			<route edges="road_2_1_2 road_1_1_2"/>
		</vehicle>
		<vehicle id="252" depart="898">
			<route edges="road_2_1_2 road_1_1_2"/>
		</vehicle>
		<vehicle id="253" depart="898">
			<route edges="road_0_1_0 road_1_1_0"/>
		</vehicle>
		<vehicle id="254" depart="899">
			<route edges="road_0_1_0 road_1_1_0"/>
		</vehicle>
		<vehicle id="255" depart="901">
			<route edges="road_2_1_2 road_1_1_2"/>
		</vehicle>
		<vehicle id="256" depart="905">
			<route edges="road_2_1_2 road_1_1_2"/>
		</vehicle>
		<vehicle id="257" depart="906">
			<route edges="road_0_1_0 road_1_1_0"/>
		</vehicle>
		<vehicle id="258" depart="906">
			<route edges="road_0_1_0 road_1_1_1"/>
		</vehicle>
		<vehicle id="259" depart="916">
			<route edges="road_1_2_3 road_1_1_3"/>
		</vehicle>
		<vehicle id="260" depart="918">
			<route edges="road_2_1_2 road_1_1_2"/>
		</vehicle>
		<vehicle id="261" depart="918">
			<route edges="road_2_1_2 road_1_1_3"/>
		</vehicle>
		<vehicle id="262" depart="918">
			<route edges="road_2_1_2 road_1_1_2"/>
		</vehicle>
		<vehicle id="263" depart="919">
			<route edges="road_2_1_2 road_1_1_2"/>
		</vehicle>
		<vehicle id="264" depart="931">
			<route edges="road_1_2_3 road_1_1_3"/>
		</vehicle>
		<vehicle id="265" depart="943">
			<route edges="road_0_1_0 road_1_1_0"/>
		</vehicle>
		<vehicle id="266" depart="945">
			<route edges="road_1_0_1 road_1_1_1"/>
		</vehicle>
		<vehicle id="267" depart="945">
			<route edges="road_1_0_1 road_1_1_2"/>
		</vehicle>
		<vehicle id="268" depart="970">
			<route edges="road_0_1_0 road_1_1_0"/>
		</vehicle>
		<vehicle id="269" depart="972">
			<route edges="road_1_2_3 road_1_1_3"/>
		</vehicle>
		<vehicle id="270" depart="982">
			<route edges="road_1_2_3 road_1_1_3"/>
		</vehicle>
		<vehicle id="271" depart="983">
			<route edges="road_1_2_3 road_1_1_3"/>
		</vehicle>
		<vehicle id="272" depart="983">
			<route edges="road_0_1_0 road_1_1_0"/>
		</vehicle>
		<vehicle id="273" depart="987">
			<route edges="road_1_0_1 road_1_1_1"/>
		</vehicle>
		<vehicle id="274" depart="987">
			<route edges="road_1_2_3 road_1_1_3"/>
		</vehicle>
		<vehicle id="275" depart="992">
			<route edges="road_1_2_3 road_1_1_3"/>
		</vehicle>
		<vehicle id="276" depart="1003">
			<route edges="road_1_2_3 road_1_1_3"/>
		</vehicle>
		<vehicle id="277" depart="1018">
			<route edges="road_2_1_2 road_1_1_2"/>
		</vehicle>
		<vehicle id="278" depart="1019">
			<route edges="road_0_1_0 road_1_1_0"/>
		</vehicle>
		<vehicle id="279" depart="1019">
			<route edges="road_0_1_0 road_1_1_1"/>
		</vehicle>
		<vehicle id="280" depart="1028">
			<route edges="road_2_1_2 road_1_1_2"/>
		</vehicle>
		<vehicle id="281" depart="1030">
			<route edges="road_0_1_0 road_1_1_0"/>
		</vehicle>
		<vehicle id="282" depart="1030">
			<route edges="road_0_1_0 road_1_1_1"/>
		</vehicle>
		<vehicle id="283" depart="1036">
			<route edges="road_1_2_3 road_1_1_3"/>
		</vehicle>
		<vehicle id="284" depart="1036">
			<route edges="road_0_1_0 road_1_1_0"/>
		</vehicle>
		<vehicle id="285" depart="1039">
			<route edges="road_0_1_0 road_1_1_0"/>
		</vehicle>
		<vehicle id="286" depart="1044">
			<route edges="road_2_1_2 road_1_1_2"/>
		</vehicle>
		<vehicle id="287" depart="1044">
			<route edges="road_0_1_0 road_1_1_0"/>
		</vehicle>
		<vehicle id="288" depart="1046">
			<route edges="road_2_1_2 road_1_1_2"/>
		</vehicle>
		<vehicle id="289" depart="1046">
			<route edges="road_0_1_0 road_1_1_0"/>
		</vehicle>
		<vehicle id="290" depart="1048">
			<route edges="road_0_1_0 road_1_1_0"/>
		</vehicle>
		<vehicle id="291" depart="1049">
			<route edges="road_2_1_2 road_1_1_2"/>
		</vehicle>
		<vehicle id="292" depart="1051">
			<route edges="road_0_1_0 road_1_1_0"/>
		</vehicle>
		<vehicle id="293" depart="1053">
			<route edges="road_0_1_0 road_1_1_0"/>
		</vehicle>
		<vehicle id="294" depart="1055">
			<route edges="road_2_1_2 road_1_1_2"/>
		</vehicle>
		<vehicle id="295" depart="1055">
			<route edges="road_2_1_2 road_1_1_3"/>
		</vehicle>
		<vehicle id="296" depart="1061">
			<route edges="road_2_1_2 road_1_1_2"/>
		</vehicle>
		<vehicle id="297" depart="1069">
			<route edges="road_2_1_2 road_1_1_2"/>
		</vehicle>
		<vehicle id="298" depart="1069">
			<route edges="road_0_1_0 road_1_1_0"/>
		</vehicle>
		<vehicle id="299" depart="1069">
			<route edges="road_0_1_0 road_1_1_1"/>
		</vehicle>
		<vehicle id="300" depart="1069">
			<route edges="road_0_1_0 road_1_1_0"/>
		</vehicle>
		<vehicle id="301" depart="1071">
			<route edges="road_0_1_0 road_1_1_0"/>
		</vehicle>
		<vehicle id="302" depart="1071">
			<route edges="road_0_1_0 road_1_1_0"/>
		</vehicle>
		<vehicle id="303" depart="1075">
			<route edges="road_2_1_2 road_1_1_2"/>
		</vehicle>
		<vehicle id="304" depart="1075">
			<route edges="road_2_1_2 road_1_1_3"/>
		</vehicle>
		<vehicle id="305" depart="1077">
			<route edges="road_2_1_2 road_1_1_2"/>
		</vehicle>
		<vehicle id="306" depart="1077">
			<route edges="road_2_1_2 road_1_1_3"/>
		</vehicle>
		<vehicle id="307" depart="1082">
			<route edges="road_2_1_2 road_1_1_2"/>
		</vehicle>
		<vehicle id="308" depart="1082">
			<route edges="road_2_1_2 road_1_1_3"/>
		</vehicle>
		<vehicle id="309" depart="1083">
			<route edges="road_0_1_0 road_1_1_0"/>
		</vehicle>
		<vehicle id="310" depart="1086">
			<route edges="road_2_1_2 road_1_1_2"/>
		</vehicle>
		<vehicle id="311" depart="1087">
			<route edges="road_0_1_0 road_1_1_0"/>
		</vehicle>
		<vehicle id="312" depart="1088">
			<route edges="road_2_1_2 road_1_1_2"/>
		</vehicle>
		<vehicle id="313" depart="1089">
			<route edges="road_2_1_2 road_1_1_2"/>
		</vehicle>
		<vehicle id="314" depart="1090">
			<route edges="road_1_2_3 road_1_1_3"/>
		</vehicle>
		<vehicle id="315" depart="1090">
			<route edges="road_0_1_0 road_1_1_0"/>
		</vehicle>
		<vehicle id="316" depart="1091">
			<route edges="road_0_1_0 road_1_1_0"/>
		</vehicle>
		<vehicle id="317" depart="1092">
			<route edges="road_2_1_2 road_1_1_2"/>
		</vehicle>
		<vehicle id="318" depart="1092">
			<route edges="road_1_2_3 road_1_1_3"/>
		</vehicle>
		<vehicle id="319" depart="1097">
			<route edges="road_2_1_2 road_1_1_2"/>
		</vehicle>
		<vehicle id="320" depart="1099">
			<route edges="road_2_1_2 road_1_1_2"/>
		</vehicle>
		<vehicle id="321" depart="1101">
			<route edges="road_2_1_2 road_1_1_2"/>
		</vehicle>
		<vehicle id="322" depart="1104">
			<route edges="road_2_1_2 road_1_1_2"/>
		</vehicle>
		<vehicle id="323" depart="1104">
			<route edges="road_2_1_2 road_1_1_3"/>
		</vehicle>
		<vehicle id="324" depart="1116">
			<route edges="road_1_2_3 road_1_1_3"/>
		</vehicle>
		<vehicle id="325" depart="1117">
			<route edges="road_1_2_3 road_1_1_3"/>
		</vehicle>
		<vehicle id="326" depart="1117">
			<route edges="road_2_1_2 road_1_1_2"/>
		</vehicle>
		<vehicle id="327" depart="1120">
			<route edges="road_1_2_3 road_1_1_3"/>
		</vehicle>
		<vehicle id="328" depart="1120">
			<route edges="road_1_2_3 road_1_1_0"/>
		</vehicle>
		<vehicle id="329" depart="1123">
			<route edges="road_0_1_0 road_1_1_0"/>
		</vehicle>
		<vehicle id="330" depart="1128">
			<route edges="road_1_0_1 road_1_1_1"/>
		</vehicle>
		<vehicle id="331" depart="1131">
			<route edges="road_1_2_3 road_1_1_3"/>
		</vehicle>
		<vehicle id="332" depart="1135">
			<route edges="road_1_2_3 road_1_1_3"/>
		</vehicle>
		<vehicle id="333" depart="1137">
			<route edges="road_2_1_2 road_1_1_2"/>
		</vehicle>
		<vehicle id="334" depart="1139">
			<route edges="road_1_2_3 road_1_1_3"/>