<?xml version="1.0" encoding="utf-8"?>
<nodes xmlns:xsi="http://www.w3.org/2001/XMLSchema-instance" xsi:noNamespaceSchemaLocation="http://sumo.dlr.de/xsd/nodes_file.xsd">
	<node id="intersection_0_1" x="-300" y="0" type="priority"/>
	<node id="intersection_0_2" x="-300" y="300" type="priority"/>
	<node id="intersection_0_3" x="-300" y="600" type="priority"/>
	<node id="intersection_0_4" x="-300" y="900" type="priority"/>
	<node id="intersection_0_5" x="-300" y="1200" type="priority"/>
	<node id="intersection_0_6" x="-300" y="1500" type="priority"/>
	<node id="intersection_0_7" x="-300" y="1800" type="priority"/>
	<node id="intersection_0_8" x="-300" y="2100" type="priority"/>
	<node id="intersection_0_9" x="-300" y="2400" type="priority"/>
	<node id="intersection_0_10" x="-300" y="2700" type="priority"/>
	<node id="intersection_0_11" x="-300" y="3000" type="priority"/>
	<node id="intersection_0_12" x="-300" y="3300" type="priority"/>
	<node id="intersection_0_13" x="-300" y="3600" type="priority"/>
	<node id="intersection_0_14" x="-300" y="3900" type="priority"/>
	<node id="intersection_0_15" x="-300" y="4200" type="priority"/>
	<node id="intersection_0_16" x="-300" y="4500" type="priority"/>
	<node id="intersection_0_17" x="-300" y="4800" type="priority"/>
	<node id="intersection_0_18" x="-300" y="5100" type="priority"/>
	<node id="intersection_0_19" x="-300" y="5400" type="priority"/>
	<node id="intersection_0_20" x="-300" y="5700" type="priority"/>
	<node id="intersection_0_21" x="-300" y="6000" type="priority"/>
	<node id="intersection_0_22" x="-300" y="6300" type="priority"/>
	<node id="intersection_0_23" x="-300" y="6600" type="priority"/>
	<node id="intersection_0_24" x="-300" y="6900" type="priority"/>
	<node id="intersection_0_25" x="-300" y="7200" type="priority"/>
	<node id="intersection_0_26" x="-300" y="7500" type="priority"/>
	<node id="intersection_0_27" x="-300" y="7800" type="priority"/>
	<node id="intersection_0_28" x="-300" y="8100" type="priority"/>
	<node id="intersection_1_0" x="0" y="-300" type="priority"/>
	<node id="intersection_1_1" x="0" y="0" type="traffic_light_right_on_red"/>
	<node id="intersection_1_2" x="0" y="300" type="traffic_light_right_on_red"/>
	<node id="intersection_1_3" x="0" y="600" type="traffic_light_right_on_red"/>
	<node id="intersection_1_4" x="0" y="900" type="traffic_light_right_on_red"/>
	<node id="intersection_1_5" x="0" y="1200" type="traffic_light_right_on_red"/>
	<node id="intersection_1_6" x="0" y="1500" type="traffic_light_right_on_red"/>
	<node id="intersection_1_7" x="0" y="1800" type="traffic_light_right_on_red"/>
	<node id="intersection_1_8" x="0" y="2100" type="traffic_light_right_on_red"/>
	<node id="intersection_1_9" x="0" y="2400" type="traffic_light_right_on_red"/>
	<node id="intersection_1_10" x="0" y="2700" type="traffic_light_right_on_red"/>
	<node id="intersection_1_11" x="0" y="3000" type="traffic_light_right_on_red"/>
	<node id="intersection_1_12" x="0" y="3300" type="traffic_light_right_on_red"/>
	<node id="intersection_1_13" x="0" y="3600" type="traffic_light_right_on_red"/>
	<node id="intersection_1_14" x="0" y="3900" type="traffic_light_right_on_red"/>
	<node id="intersection_1_15" x="0" y="4200" type="traffic_light_right_on_red"/>
	<node id="intersection_1_16" x="0" y="4500" type="traffic_light_right_on_red"/>
	<node id="intersection_1_17" x="0" y="4800" type="traffic_light_right_on_red"/>
	<node id="intersection_1_18" x="0" y="5100" type="traffic_light_right_on_red"/>
	<node id="intersection_1_19" x="0" y="5400" type="traffic_light_right_on_red"/>
	<node id="intersection_1_20" x="0" y="5700" type="traffic_light_right_on_red"/>
	<node id="intersection_1_21" x="0" y="6000" type="traffic_light_right_on_red"/>
	<node id="intersection_1_22" x="0" y="6300" type="traffic_light_right_on_red"/>
	<node id="intersection_1_23" x="0" y="6600" type="traffic_light_right_on_red"/>
	<node id="intersection_1_24" x="0" y="6900" type="traffic_light_right_on_red"/>
	<node id="intersection_1_25" x="0" y="7200" type="traffic_light_right_on_red"/>
	<node id="intersection_1_26" x="0" y="7500" type="traffic_light_right_on_red"/>
	<node id="intersection_1_27" x="0" y="7800" type="traffic_light_right_on_red"/>
	<node id="intersection_1_28" x="0" y="8100" type="traffic_light_right_on_red"/>
	<node id="intersection_1_29" x="0" y="8400" type="priority"/>
	<node id="intersection_2_0" x="300" y="-300" type="priority"/>
	<node id="intersection_2_1" x="300" y="0" type="traffic_light_right_on_red"/>
	<node id="intersection_2_2" x="300" y="300" type="traffic_light_right_on_red"/>
	<node id="intersection_2_3" x="300" y="600" type="traffic_light_right_on_red"/>
	<node id="intersection_2_4" x="300" y="900" type="traffic_light_right_on_red"/>
	<node id="intersection_2_5" x="300" y="1200" type="traffic_light_right_on_red"/>
	<node id="intersection_2_6" x="300" y="1500" type="traffic_light_right_on_red"/>
	<node id="intersection_2_7" x="300" y="1800" type="traffic_light_right_on_red"/>
	<node id="intersection_2_8" x="300" y="2100" type="traffic_light_right_on_red"/>
	<node id="intersection_2_9" x="300" y="2400" type="traffic_light_right_on_red"/>
	<node id="intersection_2_10" x="300" y="2700" type="traffic_light_right_on_red"/>
	<node id="intersection_2_11" x="300" y="3000" type="traffic_light_right_on_red"/>
	<node id="intersection_2_12" x="300" y="3300" type="traffic_light_right_on_red"/>
	<node id="intersection_2_13" x="300" y="3600" type="traffic_light_right_on_red"/>
	<node id="intersection_2_14" x="300" y="3900" type="traffic_light_right_on_red"/>
	<node id="intersection_2_15" x="300" y="4200" type="traffic_light_right_on_red"/>
	<node id="intersection_2_16" x="300" y="4500" type="traffic_light_right_on_red"/>
	<node id="intersection_2_17" x="300" y="4800" type="traffic_light_right_on_red"/>
	<node id="intersection_2_18" x="300" y="5100" type="traffic_light_right_on_red"/>
	<node id="intersection_2_19" x="300" y="5400" type="traffic_light_right_on_red"/>
	<node id="intersection_2_20" x="300" y="5700" type="traffic_light_right_on_red"/>
	<node id="intersection_2_21" x="300" y="6000" type="traffic_light_right_on_red"/>
	<node id="intersection_2_22" x="300" y="6300" type="traffic_light_right_on_red"/>
	<node id="intersection_2_23" x="300" y="6600" type="traffic_light_right_on_red"/>
	<node id="intersection_2_24" x="300" y="6900" type="traffic_light_right_on_red"/>
	<node id="intersection_2_25" x="300" y="7200" type="traffic_light_right_on_red"/>
	<node id="intersection_2_26" x="300" y="7500" type="traffic_light_right_on_red"/>
	<node id="intersection_2_27" x="300" y="7800" type="traffic_light_right_on_red"/>
	<node id="intersection_2_28" x="300" y="8100" type="traffic_light_right_on_red"/>
	<node id="intersection_2_29" x="300" y="8400" type="priority"/>
	<node id="intersection_3_0" x="600" y="-300" type="priority"/>
	<node id="intersection_3_1" x="600" y="0" type="traffic_light_right_on_red"/>
	<node id="intersection_3_2" x="600" y="300" type="traffic_light_right_on_red"/>
	<node id="intersection_3_3" x="600" y="600" type="traffic_light_right_on_red"/>
	<node id="intersection_3_4" x="600" y="900" type="traffic_light_right_on_red"/>
	<node id="intersection_3_5" x="600" y="1200" type="traffic_light_right_on_red"/>
	<node id="intersection_3_6" x="600" y="1500" type="traffic_light_right_on_red"/>
	<node id="intersection_3_7" x="600" y="1800" type="traffic_light_right_on_red"/>
	<node id="intersection_3_8" x="600" y="2100" type="traffic_light_right_on_red"/>
	<node id="intersection_3_9" x="600" y="2400" type="traffic_light_right_on_red"/>
	<node id="intersection_3_10" x="600" y="2700" type="traffic_light_right_on_red"/>
	<node id="intersection_3_11" x="600" y="3000" type="traffic_light_right_on_red"/>
	<node id="intersection_3_12" x="600" y="3300" type="traffic_light_right_on_red"/>
	<node id="intersection_3_13" x="600" y="3600" type="traffic_light_right_on_red"/>
	<node id="intersection_3_14" x="600" y="3900" type="traffic_light_right_on_red"/>
	<node id="intersection_3_15" x="600" y="4200" type="traffic_light_right_on_red"/>
	<node id="intersection_3_16" x="600" y="4500" type="traffic_light_right_on_red"/>
	<node id="intersection_3_17" x="600" y="4800" type="traffic_light_right_on_red"/>
	<node id="intersection_3_18" x="600" y="5100" type="traffic_light_right_on_red"/>
	<node id="intersection_3_19" x="600" y="5400" type="traffic_light_right_on_red"/>
	<node id="intersection_3_20" x="600" y="5700" type="traffic_light_right_on_red"/>
	<node id="intersection_3_21" x="600" y="6000" type="traffic_light_right_on_red"/>
	<node id="intersection_3_22" x="600" y="6300" type="traffic_light_right_on_red"/>
	<node id="intersection_3_23" x="600" y="6600" type="traffic_light_right_on_red"/>
	<node id="intersection_3_24" x="600" y="6900" type="traffic_light_right_on_red"/>
	<node id="intersection_3_25" x="600" y="7200" type="traffic_light_right_on_red"/>
	<node id="intersection_3_26" x="600" y="7500" type="traffic_light_right_on_red"/>
	<node id="intersection_3_27" x="600" y="7800" type="traffic_light_right_on_red"/>
	<node id="intersection_3_28" x="600" y="8100" type="traffic_light_right_on_red"/>
	<node id="intersection_3_29" x="600" y="8400" type="priority"/>
	<node id="intersection_4_0" x="900" y="-300" type="priority"/>
	<node id="intersection_4_1" x="900" y="0" type="traffic_light_right_on_red"/>
	<node id="intersection_4_2" x="900" y="300" type="traffic_light_right_on_red"/>
	<node id="intersection_4_3" x="900" y="600" type="traffic_light_right_on_red"/>
	<node id="intersection_4_4" x="900" y="900" type="traffic_light_right_on_red"/>
	<node id="intersection_4_5" x="900" y="1200" type="traffic_light_right_on_red"/>
	<node id="intersection_4_6" x="900" y="1500" type="traffic_light_right_on_red"/>
	<node id="intersection_4_7" x="900" y="1800" type="traffic_light_right_on_red"/>
	<node id="intersection_4_8" x="900" y="2100" type="traffic_light_right_on_red"/>
	<node id="intersection_4_9" x="900" y="2400" type="traffic_light_right_on_red"/>
	<node id="intersection_4_10" x="900" y="2700" type="traffic_light_right_on_red"/>
	<node id="intersection_4_11" x="900" y="3000" type="traffic_light_right_on_red"/>
	<node id="intersection_4_12" x="900" y="3300" type="traffic_light_right_on_red"/>
	<node id="intersection_4_13" x="900" y="3600" type="traffic_light_right_on_red"/>
	<node id="intersection_4_14" x="900" y="3900" type="traffic_light_right_on_red"/>
	<node id="intersection_4_15" x="900" y="4200" type="traffic_light_right_on_red"/>
	<node id="intersection_4_16" x="900" y="4500" type="traffic_light_right_on_red"/>
	<node id="intersection_4_17" x="900" y="4800" type="traffic_light_right_on_red"/>
	<node id="intersection_4_18" x="900" y="5100" type="traffic_light_right_on_red"/>
	<node id="intersection_4_19" x="900" y="5400" type="traffic_light_right_on_red"/>
	<node id="intersection_4_20" x="900" y="5700" type="traffic_light_right_on_red"/>
	<node id="intersection_4_21" x="900" y="6000" type="traffic_light_right_on_red"/>
	<node id="intersection_4_22" x="900" y="6300" type="traffic_light_right_on_red"/>
	<node id="intersection_4_23" x="900" y="6600" type="traffic_light_right_on_red"/>
	<node id="intersection_4_24" x="900" y="6900" type="traffic_light_right_on_red"/>
	<node id="intersection_4_25" x="900" y="7200" type="traffic_light_right_on_red"/>
	<node id="intersection_4_26" x="900" y="7500" type="traffic_light_right_on_red"/>
	<node id="intersection_4_27" x="900" y="7800" type="traffic_light_right_on_red"/>
	<node id="intersection_4_28" x="900" y="8100" type="traffic_light_right_on_red"/>
	<node id="intersection_4_29" x="900" y="8400" type="priority"/>
	<node id="intersection_5_0" x="1200" y="-300" type="priority"/>
	<node id="intersection_5_1" x="1200" y="0" type="traffic_light_right_on_red"/>
	<node id="intersection_5_2" x="1200" y="300" type="traffic_light_right_on_red"/>
	<node id="intersection_5_3" x="1200" y="600" type="traffic_light_right_on_red"/>
	<node id="intersection_5_4" x="1200" y="900" type="traffic_light_right_on_red"/>
	<node id="intersection_5_5" x="1200" y="1200" type="traffic_light_right_on_red"/>
	<node id="intersection_5_6" x="1200" y="1500" type="traffic_light_right_on_red"/>
	<node id="intersection_5_7" x="1200" y="1800" type="traffic_light_right_on_red"/>
	<node id="intersection_5_8" x="1200" y="2100" type="traffic_light_right_on_red"/>
	<node id="intersection_5_9" x="1200" y="2400" type="traffic_light_right_on_red"/>
	<node id="intersection_5_10" x="1200" y="2700" type="traffic_light_right_on_red"/>
	<node id="intersection_5_11" x="1200" y="3000" type="traffic_light_right_on_red"/>
	<node id="intersection_5_12" x="1200" y="3300" type="traffic_light_right_on_red"/>
	<node id="intersection_5_13" x="1200" y="3600" type="traffic_light_right_on_red"/>
	<node id="intersection_5_14" x="1200" y="3900" type="traffic_light_right_on_red"/>
	<node id="intersection_5_15" x="1200" y="4200" type="traffic_light_right_on_red"/>
	<node id="intersection_5_16" x="1200" y="4500" type="traffic_light_right_on_red"/>
	<node id="intersection_5_17" x="1200" y="4800" type="traffic_light_right_on_red"/>
	<node id="intersection_5_18" x="1200" y="5100" type="traffic_light_right_on_red"/>
	<node id="intersection_5_19" x="1200" y="5400" type="traffic_light_right_on_red"/>
	<node id="intersection_5_20" x="1200" y="5700" type="traffic_light_right_on_red"/>
	<node id="intersection_5_21" x="1200" y="6000" type="traffic_light_right_on_red"/>
	<node id="intersection_5_22" x="1200" y="6300" type="traffic_light_right_on_red"/>
	<node id="intersection_5_23" x="1200" y="6600" type="traffic_light_right_on_red"/>
	<node id="intersection_5_24" x="1200" y="6900" type="traffic_light_right_on_red"/>
	<node id="intersection_5_25" x="1200" y="7200" type="traffic_light_right_on_red"/>
	<node id="intersection_5_26" x="1200" y="7500" type="traffic_light_right_on_red"/>
	<node id="intersection_5_27" x="1200" y="7800" type="traffic_light_right_on_red"/>
	<node id="intersection_5_28" x="1200" y="8100" type="traffic_light_right_on_red"/>
	<node id="intersection_5_29" x="1200" y="8400" type="priority"/>
	<node id="intersection_6_0" x="1500" y="-300" type="priority"/>
	<node id="intersection_6_1" x="1500" y="0" type="traffic_light_right_on_red"/>
	<node id="intersection_6_2" x="1500" y="300" type="traffic_light_right_on_red"/>
	<node id="intersection_6_3" x="1500" y="600" type="traffic_light_right_on_red"/>
	<node id="intersection_6_4" x="1500" y="900" type="traffic_light_right_on_red"/>
	<node id="intersection_6_5" x="1500" y="1200" type="traffic_light_right_on_red"/>
	<node id="intersection_6_6" x="1500" y="1500" type="traffic_light_right_on_red"/>
	<node id="intersection_6_7" x="1500" y="1800" type="traffic_light_right_on_red"/>
	<node id="intersection_6_8" x="1500" y="2100" type="traffic_light_right_on_red"/>
	<node id="intersection_6_9" x="1500" y="2400" type="traffic_light_right_on_red"/>
	<node id="intersection_6_10" x="1500" y="2700" type="traffic_light_right_on_red"/>
	<node id="intersection_6_11" x="1500" y="3000" type="traffic_light_right_on_red"/>
	<node id="intersection_6_12" x="1500" y="3300" type="traffic_light_right_on_red"/>
	<node id="intersection_6_13" x="1500" y="3600" type="traffic_light_right_on_red"/>
	<node id="intersection_6_14" x="1500" y="3900" type="traffic_light_right_on_red"/>
	<node id="intersection_6_15" x="1500" y="4200" type="traffic_light_right_on_red"/>
	<node id="intersection_6_16" x="1500" y="4500" type="traffic_light_right_on_red"/>
	<node id="intersection_6_17" x="1500" y="4800" type="traffic_light_right_on_red"/>
	<node id="intersection_6_18" x="1500" y="5100" type="traffic_light_right_on_red"/>
	<node id="intersection_6_19" x="1500" y="5400" type="traffic_light_right_on_red"/>
	<node id="intersection_6_20" x="1500" y="5700" type="traffic_light_right_on_red"/>
	<node id="intersection_6_21" x="1500" y="6000" type="traffic_light_right_on_red"/>
	<node id="intersection_6_22" x="1500" y="6300" type="traffic_light_right_on_red"/>
	<node id="intersection_6_23" x="1500" y="6600" type="traffic_light_right_on_red"/>
	<node id="intersection_6_24" x="1500" y="6900" type="traffic_light_right_on_red"/>
	<node id="intersection_6_25" x="1500" y="7200" type="traffic_light_right_on_red"/>
	<node id="intersection_6_26" x="1500" y="7500" type="traffic_light_right_on_red"/>
	<node id="intersection_6_27" x="1500" y="7800" type="traffic_light_right_on_red"/>
	<node id="intersection_6_28" x="1500" y="8100" type="traffic_light_right_on_red"/>
	<node id="intersection_6_29" x="1500" y="8400" type="priority"/>
	<node id="intersection_7_0" x="1800" y="-300" type="priority"/>
	<node id="intersection_7_1" x="1800" y="0" type="traffic_light_right_on_red"/>
	<node id="intersection_7_2" x="1800" y="300" type="traffic_light_right_on_red"/>
	<node id="intersection_7_3" x="1800" y="600" type="traffic_light_right_on_red"/>
	<node id="intersection_7_4" x="1800" y="900" type="traffic_light_right_on_red"/>
	<node id="intersection_7_5" x="1800" y="1200" type="traffic_light_right_on_red"/>
	<node id="intersection_7_6" x="1800" y="1500" type="traffic_light_right_on_red"/>
	<node id="intersection_7_7" x="1800" y="1800" type="traffic_light_right_on_red"/>
	<node id="intersection_7_8" x="1800" y="2100" type="traffic_light_right_on_red"/>
	<node id="intersection_7_9" x="1800" y="2400" type="traffic_light_right_on_red"/>
	<node id="intersection_7_10" x="1800" y="2700" type="traffic_light_right_on_red"/>
	<node id="intersection_7_11" x="1800" y="3000" type="traffic_light_right_on_red"/>
	<node id="intersection_7_12" x="1800" y="3300" type="traffic_light_right_on_red"/>
	<node id="intersection_7_13" x="1800" y="3600" type="traffic_light_right_on_red"/>
	<node id="intersection_7_14" x="1800" y="3900" type="traffic_light_right_on_red"/>
	<node id="intersection_7_15" x="1800" y="4200" type="traffic_light_right_on_red"/>
	<node id="intersection_7_16" x="1800" y="4500" type="traffic_light_right_on_red"/>
	<node id="intersection_7_17" x="1800" y="4800" type="traffic_light_right_on_red"/>
	<node id="intersection_7_18" x="1800" y="5100" type="traffic_light_right_on_red"/>
	<node id="intersection_7_19" x="1800" y="5400" type="traffic_light_right_on_red"/>
	<node id="intersection_7_20" x="1800" y="5700" type="traffic_light_right_on_red"/>
	<node id="intersection_7_21" x="1800" y="6000" type="traffic_light_right_on_red"/>
	<node id="intersection_7_22" x="1800" y="6300" type="traffic_light_right_on_red"/>
	<node id="intersection_7_23" x="1800" y="6600" type="traffic_light_right_on_red"/>
	<node id="intersection_7_24" x="1800" y="6900" type="traffic_light_right_on_red"/>
	<node id="intersection_7_25" x="1800" y="7200" type="traffic_light_right_on_red"/>
	<node id="intersection_7_26" x="1800" y="7500" type="traffic_light_right_on_red"/>
	<node id="intersection_7_27" x="1800" y="7800" type="traffic_light_right_on_red"/>
	<node id="intersection_7_28" x="1800" y="8100" type="traffic_light_right_on_red"/>
	<node id="intersection_7_29" x="1800" y="8400" type="priority"/>
	<node id="intersection_8_1" x="2100" y="0" type="priority"/>
	<node id="intersection_8_2" x="2100" y="300" type="priority"/>
	<node id="intersection_8_3" x="2100" y="600" type="priority"/>
	<node id="intersection_8_4" x="2100" y="900" type="priority"/>
	<node id="intersection_8_5" x="2100" y="1200" type="priority"/>
	<node id="intersection_8_6" x="2100" y="1500" type="priority"/>
	<node id="intersection_8_7" x="2100" y="1800" type="priority"/>
	<node id="intersection_8_8" x="2100" y="2100" type="priority"/>
	<node id="intersection_8_9" x="2100" y="2400" type="priority"/>
	<node id="intersection_8_10" x="2100" y="2700" type="priority"/>
	<node id="intersection_8_11" x="2100" y="3000" type="priority"/>
	<node id="intersection_8_12" x="2100" y="3300" type="priority"/>
	<node id="intersection_8_13" x="2100" y="3600" type="priority"/>
	<node id="intersection_8_14" x="2100" y="3900" type="priority"/>
	<node id="intersection_8_15" x="2100" y="4200" type="priority"/>
	<node id="intersection_8_16" x="2100" y="4500" type="priority"/>
	<node id="intersection_8_17" x="2100" y="4800" type="priority"/>
	<node id="intersection_8_18" x="2100" y="5100" type="priority"/>
	<node id="intersection_8_19" x="2100" y="5400" type="priority"/>
	<node id="intersection_8_20" x="2100" y="5700" type="priority"/>
	<node id="intersection_8_21" x="2100" y="6000" type="priority"/>
	<node id="intersection_8_22" x="2100" y="6300" type="priority"/>
	<node id="intersection_8_23" x="2100" y="6600" type="priority"/>
	<node id="intersection_8_24" x="2100" y="6900" type="priority"/>
	<node id="intersection_8_25" x="2100" y="7200" type="priority"/>
	<node id="intersection_8_26" x="2100" y="7500" type="priority"/>
	<node id="intersection_8_27" x="2100" y="7800" type="priority"/>
	<node id="intersection_8_28" x="2100" y="8100" type="priority"/>
</nodes>
