<?xml version="1.0" encoding="utf-8"?>
<tlLogics version="1.1" xmlns:xsi="http://www.w3.org/2001/XMLSchema-instance" xsi:noNamespaceSchemaLocation="http://sumo.dlr.de/xsd/tllogic_file.xsd">
	<tlLogic id="intersection_1_1" type="static" programID="0" offset="0">
		<phase duration="30" state="GGGrrrrrrGGGGGGrrrGGGrrrrrrGGGGGGrrr"/>
		<phase duration="5" state="sssrrrrrrsssrrrrrrsssrrrrrrsssrrrrrr"/>
		<phase duration="30" state="GGGGGGrrrGGGrrrrrrGGGGGGrrrGGGrrrrrr"/>
		<phase duration="5" state="sssrrrrrrsssrrrrrrsssrrrrrrsssrrrrrr"/>
		<phase duration="30" state="GGGrrrrrrGGGrrrGGGGGGrrrrrrGGGrrrGGG"/>
		<phase duration="5" state="sssrrrrrrsssrrrrrrsssrrrrrrsssrrrrrr"/>
		<phase duration="30" state="GGGrrrGGGGGGrrrrrrGGGrrrGGGGGGrrrrrr"/>
		<phase duration="5" state="sssrrrrrrsssrrrrrrsssrrrrrrsssrrrrrr"/>
		<phase duration="30" state="GGGrrrrrrGGGrrrrrrGGGrrrrrrGGGGGGGGG"/>
		<phase duration="5" state="sssrrrrrrsssrrrrrrsssrrrrrrsssrrrrrr"/>
		<phase duration="30" state="GGGrrrrrrGGGGGGGGGGGGrrrrrrGGGrrrrrr"/>
		<phase duration="5" state="sssrrrrrrsssrrrrrrsssrrrrrrsssrrrrrr"/>
		<phase duration="30" state="GGGrrrrrrGGGrrrrrrGGGGGGGGGGGGrrrrrr"/>
		<phase duration="5" state="sssrrrrrrsssrrrrrrsssrrrrrrsssrrrrrr"/>
		<phase duration="30" state="GGGGGGGGGGGGrrrrrrGGGrrrrrrGGGrrrrrr"/>
		<phase duration="5" state="sssrrrrrrsssrrrrrrsssrrrrrrsssrrrrrr"/>
	</tlLogic>
	<tlLogic id="intersection_1_2" type="static" programID="0" offset="0">
		<phase duration="30" state="GGGrrrrrrGGGGGGrrrGGGrrrrrrGGGGGGrrr"/>
		<phase duration="5" state="sssrrrrrrsssrrrrrrsssrrrrrrsssrrrrrr"/>
		<phase duration="30" state="GGGGGGrrrGGGrrrrrrGGGGGGrrrGGGrrrrrr"/>
		<phase duration="5" state="sssrrrrrrsssrrrrrrsssrrrrrrsssrrrrrr"/>
		<phase duration="30" state="GGGrrrrrrGGGrrrGGGGGGrrrrrrGGGrrrGGG"/>
		<phase duration="5" state="sssrrrrrrsssrrrrrrsssrrrrrrsssrrrrrr"/>
		<phase duration="30" state="GGGrrrGGGGGGrrrrrrGGGrrrGGGGGGrrrrrr"/>
		<phase duration="5" state="sssrrrrrrsssrrrrrrsssrrrrrrsssrrrrrr"/>
		<phase duration="30" state="GGGrrrrrrGGGrrrrrrGGGrrrrrrGGGGGGGGG"/>
		<phase duration="5" state="sssrrrrrrsssrrrrrrsssrrrrrrsssrrrrrr"/>
		<phase duration="30" state="GGGrrrrrrGGGGGGGGGGGGrrrrrrGGGrrrrrr"/>
		<phase duration="5" state="sssrrrrrrsssrrrrrrsssrrrrrrsssrrrrrr"/>
		<phase duration="30" state="GGGrrrrrrGGGrrrrrrGGGGGGGGGGGGrrrrrr"/>
		<phase duration="5" state="sssrrrrrrsssrrrrrrsssrrrrrrsssrrrrrr"/>
		<phase duration="30" state="GGGGGGGGGGGGrrrrrrGGGrrrrrrGGGrrrrrr"/>
		<phase duration="5" state="sssrrrrrrsssrrrrrrsssrrrrrrsssrrrrrr"/>
	</tlLogic>
	<tlLogic id="intersection_1_3" type="static" programID="0" offset="0">
		<phase duration="30" state="GGGrrrrrrGGGGGGrrrGGGrrrrrrGGGGGGrrr"/>
		<phase duration="5" state="sssrrrrrrsssrrrrrrsssrrrrrrsssrrrrrr"/>
		<phase duration="30" state="GGGGGGrrrGGGrrrrrrGGGGGGrrrGGGrrrrrr"/>
		<phase duration="5" state="sssrrrrrrsssrrrrrrsssrrrrrrsssrrrrrr"/>
		<phase duration="30" state="GGGrrrrrrGGGrrrGGGGGGrrrrrrGGGrrrGGG"/>
		<phase duration="5" state="sssrrrrrrsssrrrrrrsssrrrrrrsssrrrrrr"/>
		<phase duration="30" state="GGGrrrGGGGGGrrrrrrGGGrrrGGGGGGrrrrrr"/>
		<phase duration="5" state="sssrrrrrrsssrrrrrrsssrrrrrrsssrrrrrr"/>
		<phase duration="30" state="GGGrrrrrrGGGrrrrrrGGGrrrrrrGGGGGGGGG"/>
		<phase duration="5" state="sssrrrrrrsssrrrrrrsssrrrrrrsssrrrrrr"/>
		<phase duration="30" state="GGGrrrrrrGGGGGGGGGGGGrrrrrrGGGrrrrrr"/>
		<phase duration="5" state="sssrrrrrrsssrrrrrrsssrrrrrrsssrrrrrr"/>
		<phase duration="30" state="GGGrrrrrrGGGrrrrrrGGGGGGGGGGGGrrrrrr"/>
		<phase duration="5" state="sssrrrrrrsssrrrrrrsssrrrrrrsssrrrrrr"/>
		<phase duration="30" state="GGGGGGGGGGGGrrrrrrGGGrrrrrrGGGrrrrrr"/>
		<phase duration="5" state="sssrrrrrrsssrrrrrrsssrrrrrrsssrrrrrr"/>
	</tlLogic>
	<tlLogic id="intersection_1_4" type="static" programID="0" offset="0">
		<phase duration="30" state="GGGrrrrrrGGGGGGrrrGGGrrrrrrGGGGGGrrr"/>
		<phase duration="5" state="sssrrrrrrsssrrrrrrsssrrrrrrsssrrrrrr"/>
		<phase duration="30" state="GGGGGGrrrGGGrrrrrrGGGGGGrrrGGGrrrrrr"/>
		<phase duration="5" state="sssrrrrrrsssrrrrrrsssrrrrrrsssrrrrrr"/>
		<phase duration="30" state="GGGrrrrrrGGGrrrGGGGGGrrrrrrGGGrrrGGG"/>
		<phase duration="5" state="sssrrrrrrsssrrrrrrsssrrrrrrsssrrrrrr"/>
		<phase duration="30" state="GGGrrrGGGGGGrrrrrrGGGrrrGGGGGGrrrrrr"/>
		<phase duration="5" state="sssrrrrrrsssrrrrrrsssrrrrrrsssrrrrrr"/>
		<phase duration="30" state="GGGrrrrrrGGGrrrrrrGGGrrrrrrGGGGGGGGG"/>
		<phase duration="5" state="sssrrrrrrsssrrrrrrsssrrrrrrsssrrrrrr"/>
		<phase duration="30" state="GGGrrrrrrGGGGGGGGGGGGrrrrrrGGGrrrrrr"/>
		<phase duration="5" state="sssrrrrrrsssrrrrrrsssrrrrrrsssrrrrrr"/>
		<phase duration="30" state="GGGrrrrrrGGGrrrrrrGGGGGGGGGGGGrrrrrr"/>
		<phase duration="5" state="sssrrrrrrsssrrrrrrsssrrrrrrsssrrrrrr"/>
		<phase duration="30" state="GGGGGGGGGGGGrrrrrrGGGrrrrrrGGGrrrrrr"/>
		<phase duration="5" state="sssrrrrrrsssrrrrrrsssrrrrrrsssrrrrrr"/>
	</tlLogic>
	<tlLogic id="intersection_1_5" type="static" programID="0" offset="0">
		<phase duration="30" state="GGGrrrrrrGGGGGGrrrGGGrrrrrrGGGGGGrrr"/>
		<phase duration="5" state="sssrrrrrrsssrrrrrrsssrrrrrrsssrrrrrr"/>
		<phase duration="30" state="GGGGGGrrrGGGrrrrrrGGGGGGrrrGGGrrrrrr"/>
		<phase duration="5" state="sssrrrrrrsssrrrrrrsssrrrrrrsssrrrrrr"/>
		<phase duration="30" state="GGGrrrrrrGGGrrrGGGGGGrrrrrrGGGrrrGGG"/>
		<phase duration="5" state="sssrrrrrrsssrrrrrrsssrrrrrrsssrrrrrr"/>
		<phase duration="30" state="GGGrrrGGGGGGrrrrrrGGGrrrGGGGGGrrrrrr"/>
		<phase duration="5" state="sssrrrrrrsssrrrrrrsssrrrrrrsssrrrrrr"/>
		<phase duration="30" state="GGGrrrrrrGGGrrrrrrGGGrrrrrrGGGGGGGGG"/>
		<phase duration="5" state="sssrrrrrrsssrrrrrrsssrrrrrrsssrrrrrr"/>
		<phase duration="30" state="GGGrrrrrrGGGGGGGGGGGGrrrrrrGGGrrrrrr"/>
		<phase duration="5" state="sssrrrrrrsssrrrrrrsssrrrrrrsssrrrrrr"/>
		<phase duration="30" state="GGGrrrrrrGGGrrrrrrGGGGGGGGGGGGrrrrrr"/>
		<phase duration="5" state="sssrrrrrrsssrrrrrrsssrrrrrrsssrrrrrr"/>
		<phase duration="30" state="GGGGGGGGGGGGrrrrrrGGGrrrrrrGGGrrrrrr"/>
		<phase duration="5" state="sssrrrrrrsssrrrrrrsssrrrrrrsssrrrrrr"/>
	</tlLogic>
	<tlLogic id="intersection_1_6" type="static" programID="0" offset="0">
		<phase duration="30" state="GGGrrrrrrGGGGGGrrrGGGrrrrrrGGGGGGrrr"/>
		<phase duration="5" state="sssrrrrrrsssrrrrrrsssrrrrrrsssrrrrrr"/>
		<phase duration="30" state="GGGGGGrrrGGGrrrrrrGGGGGGrrrGGGrrrrrr"/>
		<phase duration="5" state="sssrrrrrrsssrrrrrrsssrrrrrrsssrrrrrr"/>
		<phase duration="30" state="GGGrrrrrrGGGrrrGGGGGGrrrrrrGGGrrrGGG"/>
		<phase duration="5" state="sssrrrrrrsssrrrrrrsssrrrrrrsssrrrrrr"/>
		<phase duration="30" state="GGGrrrGGGGGGrrrrrrGGGrrrGGGGGGrrrrrr"/>
		<phase duration="5" state="sssrrrrrrsssrrrrrrsssrrrrrrsssrrrrrr"/>
		<phase duration="30" state="GGGrrrrrrGGGrrrrrrGGGrrrrrrGGGGGGGGG"/>
		<phase duration="5" state="sssrrrrrrsssrrrrrrsssrrrrrrsssrrrrrr"/>
		<phase duration="30" state="GGGrrrrrrGGGGGGGGGGGGrrrrrrGGGrrrrrr"/>
		<phase duration="5" state="sssrrrrrrsssrrrrrrsssrrrrrrsssrrrrrr"/>
		<phase duration="30" state="GGGrrrrrrGGGrrrrrrGGGGGGGGGGGGrrrrrr"/>
		<phase duration="5" state="sssrrrrrrsssrrrrrrsssrrrrrrsssrrrrrr"/>
		<phase duration="30" state="GGGGGGGGGGGGrrrrrrGGGrrrrrrGGGrrrrrr"/>
		<phase duration="5" state="sssrrrrrrsssrrrrrrsssrrrrrrsssrrrrrr"/>
	</tlLogic>
	<tlLogic id="intersection_1_7" type="static" programID="0" offset="0">
		<phase duration="30" state="GGGrrrrrrGGGGGGrrrGGGrrrrrrGGGGGGrrr"/>
		<phase duration="5" state="sssrrrrrrsssrrrrrrsssrrrrrrsssrrrrrr"/>
		<phase duration="30" state="GGGGGGrrrGGGrrrrrrGGGGGGrrrGGGrrrrrr"/>
		<phase duration="5" state="sssrrrrrrsssrrrrrrsssrrrrrrsssrrrrrr"/>
		<phase duration="30" state="GGGrrrrrrGGGrrrGGGGGGrrrrrrGGGrrrGGG"/>
		<phase duration="5" state="sssrrrrrrsssrrrrrrsssrrrrrrsssrrrrrr"/>
		<phase duration="30" state="GGGrrrGGGGGGrrrrrrGGGrrrGGGGGGrrrrrr"/>
		<phase duration="5" state="sssrrrrrrsssrrrrrrsssrrrrrrsssrrrrrr"/>
		<phase duration="30" state="GGGrrrrrrGGGrrrrrrGGGrrrrrrGGGGGGGGG"/>
		<phase duration="5" state="sssrrrrrrsssrrrrrrsssrrrrrrsssrrrrrr"/>
		<phase duration="30" state="GGGrrrrrrGGGGGGGGGGGGrrrrrrGGGrrrrrr"/>
		<phase duration="5" state="sssrrrrrrsssrrrrrrsssrrrrrrsssrrrrrr"/>
		<phase duration="30" state="GGGrrrrrrGGGrrrrrrGGGGGGGGGGGGrrrrrr"/>
		<phase duration="5" state="sssrrrrrrsssrrrrrrsssrrrrrrsssrrrrrr"/>
		<phase duration="30" state="GGGGGGGGGGGGrrrrrrGGGrrrrrrGGGrrrrrr"/>
		<phase duration="5" state="sssrrrrrrsssrrrrrrsssrrrrrrsssrrrrrr"/>
	</tlLogic>
	<tlLogic id="intersection_1_8" type="static" programID="0" offset="0">
		<phase duration="30" state="GGGrrrrrrGGGGGGrrrGGGrrrrrrGGGGGGrrr"/>
		<phase duration="5" state="sssrrrrrrsssrrrrrrsssrrrrrrsssrrrrrr"/>
		<phase duration="30" state="GGGGGGrrrGGGrrrrrrGGGGGGrrrGGGrrrrrr"/>
		<phase duration="5" state="sssrrrrrrsssrrrrrrsssrrrrrrsssrrrrrr"/>
		<phase duration="30" state="GGGrrrrrrGGGrrrGGGGGGrrrrrrGGGrrrGGG"/>
		<phase duration="5" state="sssrrrrrrsssrrrrrrsssrrrrrrsssrrrrrr"/>
		<phase duration="30" state="GGGrrrGGGGGGrrrrrrGGGrrrGGGGGGrrrrrr"/>
		<phase duration="5" state="sssrrrrrrsssrrrrrrsssrrrrrrsssrrrrrr"/>
		<phase duration="30" state="GGGrrrrrrGGGrrrrrrGGGrrrrrrGGGGGGGGG"/>
		<phase duration="5" state="sssrrrrrrsssrrrrrrsssrrrrrrsssrrrrrr"/>
		<phase duration="30" state="GGGrrrrrrGGGGGGGGGGGGrrrrrrGGGrrrrrr"/>
		<phase duration="5" state="sssrrrrrrsssrrrrrrsssrrrrrrsssrrrrrr"/>
		<phase duration="30" state="GGGrrrrrrGGGrrrrrrGGGGGGGGGGGGrrrrrr"/>
		<phase duration="5" state="sssrrrrrrsssrrrrrrsssrrrrrrsssrrrrrr"/>
		<phase duration="30" state="GGGGGGGGGGGGrrrrrrGGGrrrrrrGGGrrrrrr"/>
		<phase duration="5" state="sssrrrrrrsssrrrrrrsssrrrrrrsssrrrrrr"/>
	</tlLogic>
	<tlLogic id="intersection_1_9" type="static" programID="0" offset="0">
		<phase duration="30" state="GGGrrrrrrGGGGGGrrrGGGrrrrrrGGGGGGrrr"/>
		<phase duration="5" state="sssrrrrrrsssrrrrrrsssrrrrrrsssrrrrrr"/>
		<phase duration="30" state="GGGGGGrrrGGGrrrrrrGGGGGGrrrGGGrrrrrr"/>
		<phase duration="5" state="sssrrrrrrsssrrrrrrsssrrrrrrsssrrrrrr"/>
		<phase duration="30" state="GGGrrrrrrGGGrrrGGGGGGrrrrrrGGGrrrGGG"/>
		<phase duration="5" state="sssrrrrrrsssrrrrrrsssrrrrrrsssrrrrrr"/>
		<phase duration="30" state="GGGrrrGGGGGGrrrrrrGGGrrrGGGGGGrrrrrr"/>
		<phase duration="5" state="sssrrrrrrsssrrrrrrsssrrrrrrsssrrrrrr"/>
		<phase duration="30" state="GGGrrrrrrGGGrrrrrrGGGrrrrrrGGGGGGGGG"/>
		<phase duration="5" state="sssrrrrrrsssrrrrrrsssrrrrrrsssrrrrrr"/>
		<phase duration="30" state="GGGrrrrrrGGGGGGGGGGGGrrrrrrGGGrrrrrr"/>
		<phase duration="5" state="sssrrrrrrsssrrrrrrsssrrrrrrsssrrrrrr"/>
		<phase duration="30" state="GGGrrrrrrGGGrrrrrrGGGGGGGGGGGGrrrrrr"/>
		<phase duration="5" state="sssrrrrrrsssrrrrrrsssrrrrrrsssrrrrrr"/>
		<phase duration="30" state="GGGGGGGGGGGGrrrrrrGGGrrrrrrGGGrrrrrr"/>
		<phase duration="5" state="sssrrrrrrsssrrrrrrsssrrrrrrsssrrrrrr"/>
	</tlLogic>
	<tlLogic id="intersection_1_10" type="static" programID="0" offset="0">
		<phase duration="30" state="GGGrrrrrrGGGGGGrrrGGGrrrrrrGGGGGGrrr"/>
		<phase duration="5" state="sssrrrrrrsssrrrrrrsssrrrrrrsssrrrrrr"/>
		<phase duration="30" state="GGGGGGrrrGGGrrrrrrGGGGGGrrrGGGrrrrrr"/>
		<phase duration="5" state="sssrrrrrrsssrrrrrrsssrrrrrrsssrrrrrr"/>
		<phase duration="30" state="GGGrrrrrrGGGrrrGGGGGGrrrrrrGGGrrrGGG"/>
		<phase duration="5" state="sssrrrrrrsssrrrrrrsssrrrrrrsssrrrrrr"/>
		<phase duration="30" state="GGGrrrGGGGGGrrrrrrGGGrrrGGGGGGrrrrrr"/>
		<phase duration="5" state="sssrrrrrrsssrrrrrrsssrrrrrrsssrrrrrr"/>
		<phase duration="30" state="GGGrrrrrrGGGrrrrrrGGGrrrrrrGGGGGGGGG"/>
		<phase duration="5" state="sssrrrrrrsssrrrrrrsssrrrrrrsssrrrrrr"/>
		<phase duration="30" state="GGGrrrrrrGGGGGGGGGGGGrrrrrrGGGrrrrrr"/>
		<phase duration="5" state="sssrrrrrrsssrrrrrrsssrrrrrrsssrrrrrr"/>
		<phase duration="30" state="GGGrrrrrrGGGrrrrrrGGGGGGGGGGGGrrrrrr"/>
		<phase duration="5" state="sssrrrrrrsssrrrrrrsssrrrrrrsssrrrrrr"/>
		<phase duration="30" state="GGGGGGGGGGGGrrrrrrGGGrrrrrrGGGrrrrrr"/>
		<phase duration="5" state="sssrrrrrrsssrrrrrrsssrrrrrrsssrrrrrr"/>
	</tlLogic>
	<tlLogic id="intersection_1_11" type="static" programID="0" offset="0">
		<phase duration="30" state="GGGrrrrrrGGGGGGrrrGGGrrrrrrGGGGGGrrr"/>
		<phase duration="5" state="sssrrrrrrsssrrrrrrsssrrrrrrsssrrrrrr"/>
		<phase duration="30" state="GGGGGGrrrGGGrrrrrrGGGGGGrrrGGGrrrrrr"/>
		<phase duration="5" state="sssrrrrrrsssrrrrrrsssrrrrrrsssrrrrrr"/>
		<phase duration="30" state="GGGrrrrrrGGGrrrGGGGGGrrrrrrGGGrrrGGG"/>
		<phase duration="5" state="sssrrrrrrsssrrrrrrsssrrrrrrsssrrrrrr"/>
		<phase duration="30" state="GGGrrrGGGGGGrrrrrrGGGrrrGGGGGGrrrrrr"/>
		<phase duration="5" state="sssrrrrrrsssrrrrrrsssrrrrrrsssrrrrrr"/>
		<phase duration="30" state="GGGrrrrrrGGGrrrrrrGGGrrrrrrGGGGGGGGG"/>
		<phase duration="5" state="sssrrrrrrsssrrrrrrsssrrrrrrsssrrrrrr"/>
		<phase duration="30" state="GGGrrrrrrGGGGGGGGGGGGrrrrrrGGGrrrrrr"/>
		<phase duration="5" state="sssrrrrrrsssrrrrrrsssrrrrrrsssrrrrrr"/>
		<phase duration="30" state="GGGrrrrrrGGGrrrrrrGGGGGGGGGGGGrrrrrr"/>
		<phase duration="5" state="sssrrrrrrsssrrrrrrsssrrrrrrsssrrrrrr"/>
		<phase duration="30" state="GGGGGGGGGGGGrrrrrrGGGrrrrrrGGGrrrrrr"/>
		<phase duration="5" state="sssrrrrrrsssrrrrrrsssrrrrrrsssrrrrrr"/>
	</tlLogic>
	<tlLogic id="intersection_1_12" type="static" programID="0" offset="0">
		<phase duration="30" state="GGGrrrrrrGGGGGGrrrGGGrrrrrrGGGGGGrrr"/>
		<phase duration="5" state="sssrrrrrrsssrrrrrrsssrrrrrrsssrrrrrr"/>
		<phase duration="30" state="GGGGGGrrrGGGrrrrrrGGGGGGrrrGGGrrrrrr"/>
		<phase duration="5" state="sssrrrrrrsssrrrrrrsssrrrrrrsssrrrrrr"/>
		<phase duration="30" state="GGGrrrrrrGGGrrrGGGGGGrrrrrrGGGrrrGGG"/>
		<phase duration="5" state="sssrrrrrrsssrrrrrrsssrrrrrrsssrrrrrr"/>
		<phase duration="30" state="GGGrrrGGGGGGrrrrrrGGGrrrGGGGGGrrrrrr"/>
		<phase duration="5" state="sssrrrrrrsssrrrrrrsssrrrrrrsssrrrrrr"/>
		<phase duration="30" state="GGGrrrrrrGGGrrrrrrGGGrrrrrrGGGGGGGGG"/>
		<phase duration="5" state="sssrrrrrrsssrrrrrrsssrrrrrrsssrrrrrr"/>
		<phase duration="30" state="GGGrrrrrrGGGGGGGGGGGGrrrrrrGGGrrrrrr"/>
		<phase duration="5" state="sssrrrrrrsssrrrrrrsssrrrrrrsssrrrrrr"/>
		<phase duration="30" state="GGGrrrrrrGGGrrrrrrGGGGGGGGGGGGrrrrrr"/>
		<phase duration="5" state="sssrrrrrrsssrrrrrrsssrrrrrrsssrrrrrr"/>
		<phase duration="30" state="GGGGGGGGGGGGrrrrrrGGGrrrrrrGGGrrrrrr"/>
		<phase duration="5" state="sssrrrrrrsssrrrrrrsssrrrrrrsssrrrrrr"/>
	</tlLogic>
	<tlLogic id="intersection_1_13" type="static" programID="0" offset="0">
		<phase duration="30" state="GGGrrrrrrGGGGGGrrrGGGrrrrrrGGGGGGrrr"/>
		<phase duration="5" state="sssrrrrrrsssrrrrrrsssrrrrrrsssrrrrrr"/>
		<phase duration="30" state="GGGGGGrrrGGGrrrrrrGGGGGGrrrGGGrrrrrr"/>
		<phase duration="5" state="sssrrrrrrsssrrrrrrsssrrrrrrsssrrrrrr"/>
		<phase duration="30" state="GGGrrrrrrGGGrrrGGGGGGrrrrrrGGGrrrGGG"/>
		<phase duration="5" state="sssrrrrrrsssrrrrrrsssrrrrrrsssrrrrrr"/>
		<phase duration="30" state="GGGrrrGGGGGGrrrrrrGGGrrrGGGGGGrrrrrr"/>
		<phase duration="5" state="sssrrrrrrsssrrrrrrsssrrrrrrsssrrrrrr"/>
		<phase duration="30" state="GGGrrrrrrGGGrrrrrrGGGrrrrrrGGGGGGGGG"/>
		<phase duration="5" state="sssrrrrrrsssrrrrrrsssrrrrrrsssrrrrrr"/>
		<phase duration="30" state="GGGrrrrrrGGGGGGGGGGGGrrrrrrGGGrrrrrr"/>
		<phase duration="5" state="sssrrrrrrsssrrrrrrsssrrrrrrsssrrrrrr"/>
		<phase duration="30" state="GGGrrrrrrGGGrrrrrrGGGGGGGGGGGGrrrrrr"/>
		<phase duration="5" state="sssrrrrrrsssrrrrrrsssrrrrrrsssrrrrrr"/>
		<phase duration="30" state="GGGGGGGGGGGGrrrrrrGGGrrrrrrGGGrrrrrr"/>
		<phase duration="5" state="sssrrrrrrsssrrrrrrsssrrrrrrsssrrrrrr"/>
	</tlLogic>
	<tlLogic id="intersection_1_14" type="static" programID="0" offset="0">
		<phase duration="30" state="GGGrrrrrrGGGGGGrrrGGGrrrrrrGGGGGGrrr"/>
		<phase duration="5" state="sssrrrrrrsssrrrrrrsssrrrrrrsssrrrrrr"/>
		<phase duration="30" state="GGGGGGrrrGGGrrrrrrGGGGGGrrrGGGrrrrrr"/>
		<phase duration="5" state="sssrrrrrrsssrrrrrrsssrrrrrrsssrrrrrr"/>
		<phase duration="30" state="GGGrrrrrrGGGrrrGGGGGGrrrrrrGGGrrrGGG"/>
		<phase duration="5" state="sssrrrrrrsssrrrrrrsssrrrrrrsssrrrrrr"/>
		<phase duration="30" state="GGGrrrGGGGGGrrrrrrGGGrrrGGGGGGrrrrrr"/>
		<phase duration="5" state="sssrrrrrrsssrrrrrrsssrrrrrrsssrrrrrr"/>
		<phase duration="30" state="GGGrrrrrrGGGrrrrrrGGGrrrrrrGGGGGGGGG"/>
		<phase duration="5" state="sssrrrrrrsssrrrrrrsssrrrrrrsssrrrrrr"/>
		<phase duration="30" state="GGGrrrrrrGGGGGGGGGGGGrrrrrrGGGrrrrrr"/>
		<phase duration="5" state="sssrrrrrrsssrrrrrrsssrrrrrrsssrrrrrr"/>
		<phase duration="30" state="GGGrrrrrrGGGrrrrrrGGGGGGGGGGGGrrrrrr"/>
		<phase duration="5" state="sssrrrrrrsssrrrrrrsssrrrrrrsssrrrrrr"/>
		<phase duration="30" state="GGGGGGGGGGGGrrrrrrGGGrrrrrrGGGrrrrrr"/>
		<phase duration="5" state="sssrrrrrrsssrrrrrrsssrrrrrrsssrrrrrr"/>
	</tlLogic>
	<tlLogic id="intersection_1_15" type="static" programID="0" offset="0">
		<phase duration="30" state="GGGrrrrrrGGGGGGrrrGGGrrrrrrGGGGGGrrr"/>
		<phase duration="5" state="sssrrrrrrsssrrrrrrsssrrrrrrsssrrrrrr"/>
		<phase duration="30" state="GGGGGGrrrGGGrrrrrrGGGGGGrrrGGGrrrrrr"/>
		<phase duration="5" state="sssrrrrrrsssrrrrrrsssrrrrrrsssrrrrrr"/>
		<phase duration="30" state="GGGrrrrrrGGGrrrGGGGGGrrrrrrGGGrrrGGG"/>
		<phase duration="5" state="sssrrrrrrsssrrrrrrsssrrrrrrsssrrrrrr"/>
		<phase duration="30" state="GGGrrrGGGGGGrrrrrrGGGrrrGGGGGGrrrrrr"/>
		<phase duration="5" state="sssrrrrrrsssrrrrrrsssrrrrrrsssrrrrrr"/>
		<phase duration="30" state="GGGrrrrrrGGGrrrrrrGGGrrrrrrGGGGGGGGG"/>
		<phase duration="5" state="sssrrrrrrsssrrrrrrsssrrrrrrsssrrrrrr"/>
		<phase duration="30" state="GGGrrrrrrGGGGGGGGGGGGrrrrrrGGGrrrrrr"/>
		<phase duration="5" state="sssrrrrrrsssrrrrrrsssrrrrrrsssrrrrrr"/>
		<phase duration="30" state="GGGrrrrrrGGGrrrrrrGGGGGGGGGGGGrrrrrr"/>
		<phase duration="5" state="sssrrrrrrsssrrrrrrsssrrrrrrsssrrrrrr"/>
		<phase duration="30" state="GGGGGGGGGGGGrrrrrrGGGrrrrrrGGGrrrrrr"/>
		<phase duration="5" state="sssrrrrrrsssrrrrrrsssrrrrrrsssrrrrrr"/>
	</tlLogic>
	<tlLogic id="intersection_1_16" type="static" programID="0" offset="0">
		<phase duration="30" state="GGGrrrrrrGGGGGGrrrGGGrrrrrrGGGGGGrrr"/>
		<phase duration="5" state="sssrrrrrrsssrrrrrrsssrrrrrrsssrrrrrr"/>
		<phase duration="30" state="GGGGGGrrrGGGrrrrrrGGGGGGrrrGGGrrrrrr"/>
		<phase duration="5" state="sssrrrrrrsssrrrrrrsssrrrrrrsssrrrrrr"/>
		<phase duration="30" state="GGGrrrrrrGGGrrrGGGGGGrrrrrrGGGrrrGGG"/>
		<phase duration="5" state="sssrrrrrrsssrrrrrrsssrrrrrrsssrrrrrr"/>
		<phase duration="30" state="GGGrrrGGGGGGrrrrrrGGGrrrGGGGGGrrrrrr"/>
		<phase duration="5" state="sssrrrrrrsssrrrrrrsssrrrrrrsssrrrrrr"/>
		<phase duration="30" state="GGGrrrrrrGGGrrrrrrGGGrrrrrrGGGGGGGGG"/>
		<phase duration="5" state="sssrrrrrrsssrrrrrrsssrrrrrrsssrrrrrr"/>
		<phase duration="30" state="GGGrrrrrrGGGGGGGGGGGGrrrrrrGGGrrrrrr"/>
		<phase duration="5" state="sssrrrrrrsssrrrrrrsssrrrrrrsssrrrrrr"/>
		<phase duration="30" state="GGGrrrrrrGGGrrrrrrGGGGGGGGGGGGrrrrrr"/>
		<phase duration="5" state="sssrrrrrrsssrrrrrrsssrrrrrrsssrrrrrr"/>
		<phase duration="30" state="GGGGGGGGGGGGrrrrrrGGGrrrrrrGGGrrrrrr"/>
		<phase duration="5" state="sssrrrrrrsssrrrrrrsssrrrrrrsssrrrrrr"/>
	</tlLogic>
	<tlLogic id="intersection_1_17" type="static" programID="0" offset="0">
		<phase duration="30" state="GGGrrrrrrGGGGGGrrrGGGrrrrrrGGGGGGrrr"/>
		<phase duration="5" state="sssrrrrrrsssrrrrrrsssrrrrrrsssrrrrrr"/>
		<phase duration="30" state="GGGGGGrrrGGGrrrrrrGGGGGGrrrGGGrrrrrr"/>
		<phase duration="5" state="sssrrrrrrsssrrrrrrsssrrrrrrsssrrrrrr"/>
		<phase duration="30" state="GGGrrrrrrGGGrrrGGGGGGrrrrrrGGGrrrGGG"/>
		<phase duration="5" state="sssrrrrrrsssrrrrrrsssrrrrrrsssrrrrrr"/>
		<phase duration="30" state="GGGrrrGGGGGGrrrrrrGGGrrrGGGGGGrrrrrr"/>
		<phase duration="5" state="sssrrrrrrsssrrrrrrsssrrrrrrsssrrrrrr"/>
		<phase duration="30" state="GGGrrrrrrGGGrrrrrrGGGrrrrrrGGGGGGGGG"/>
		<phase duration="5" state="sssrrrrrrsssrrrrrrsssrrrrrrsssrrrrrr"/>
		<phase duration="30" state="GGGrrrrrrGGGGGGGGGGGGrrrrrrGGGrrrrrr"/>
		<phase duration="5" state="sssrrrrrrsssrrrrrrsssrrrrrrsssrrrrrr"/>
		<phase duration="30" state="GGGrrrrrrGGGrrrrrrGGGGGGGGGGGGrrrrrr"/>
		<phase duration="5" state="sssrrrrrrsssrrrrrrsssrrrrrrsssrrrrrr"/>
		<phase duration="30" state="GGGGGGGGGGGGrrrrrrGGGrrrrrrGGGrrrrrr"/>
		<phase duration="5" state="sssrrrrrrsssrrrrrrsssrrrrrrsssrrrrrr"/>
	</tlLogic>
	<tlLogic id="intersection_1_18" type="static" programID="0" offset="0">
		<phase duration="30" state="GGGrrrrrrGGGGGGrrrGGGrrrrrrGGGGGGrrr"/>
		<phase duration="5" state="sssrrrrrrsssrrrrrrsssrrrrrrsssrrrrrr"/>
		<phase duration="30" state="GGGGGGrrrGGGrrrrrrGGGGGGrrrGGGrrrrrr"/>
		<phase duration="5" state="sssrrrrrrsssrrrrrrsssrrrrrrsssrrrrrr"/>
		<phase duration="30" state="GGGrrrrrrGGGrrrGGGGGGrrrrrrGGGrrrGGG"/>
		<phase duration="5" state="sssrrrrrrsssrrrrrrsssrrrrrrsssrrrrrr"/>
		<phase duration="30" state="GGGrrrGGGGGGrrrrrrGGGrrrGGGGGGrrrrrr"/>
		<phase duration="5" state="sssrrrrrrsssrrrrrrsssrrrrrrsssrrrrrr"/>
		<phase duration="30" state="GGGrrrrrrGGGrrrrrrGGGrrrrrrGGGGGGGGG"/>
		<phase duration="5" state="sssrrrrrrsssrrrrrrsssrrrrrrsssrrrrrr"/>
		<phase duration="30" state="GGGrrrrrrGGGGGGGGGGGGrrrrrrGGGrrrrrr"/>
		<phase duration="5" state="sssrrrrrrsssrrrrrrsssrrrrrrsssrrrrrr"/>
		<phase duration="30" state="GGGrrrrrrGGGrrrrrrGGGGGGGGGGGGrrrrrr"/>
		<phase duration="5" state="sssrrrrrrsssrrrrrrsssrrrrrrsssrrrrrr"/>
		<phase duration="30" state="GGGGGGGGGGGGrrrrrrGGGrrrrrrGGGrrrrrr"/>
		<phase duration="5" state="sssrrrrrrsssrrrrrrsssrrrrrrsssrrrrrr"/>
	</tlLogic>
	<tlLogic id="intersection_1_19" type="static" programID="0" offset="0">
		<phase duration="30" state="GGGrrrrrrGGGGGGrrrGGGrrrrrrGGGGGGrrr"/>
		<phase duration="5" state="sssrrrrrrsssrrrrrrsssrrrrrrsssrrrrrr"/>
		<phase duration="30" state="GGGGGGrrrGGGrrrrrrGGGGGGrrrGGGrrrrrr"/>
		<phase duration="5" state="sssrrrrrrsssrrrrrrsssrrrrrrsssrrrrrr"/>
		<phase duration="30" state="GGGrrrrrrGGGrrrGGGGGGrrrrrrGGGrrrGGG"/>
		<phase duration="5" state="sssrrrrrrsssrrrrrrsssrrrrrrsssrrrrrr"/>
		<phase duration="30" state="GGGrrrGGGGGGrrrrrrGGGrrrGGGGGGrrrrrr"/>
		<phase duration="5" state="sssrrrrrrsssrrrrrrsssrrrrrrsssrrrrrr"/>
		<phase duration="30" state="GGGrrrrrrGGGrrrrrrGGGrrrrrrGGGGGGGGG"/>
		<phase duration="5" state="sssrrrrrrsssrrrrrrsssrrrrrrsssrrrrrr"/>
		<phase duration="30" state="GGGrrrrrrGGGGGGGGGGGGrrrrrrGGGrrrrrr"/>
		<phase duration="5" state="sssrrrrrrsssrrrrrrsssrrrrrrsssrrrrrr"/>
		<phase duration="30" state="GGGrrrrrrGGGrrrrrrGGGGGGGGGGGGrrrrrr"/>
		<phase duration="5" state="sssrrrrrrsssrrrrrrsssrrrrrrsssrrrrrr"/>
		<phase duration="30" state="GGGGGGGGGGGGrrrrrrGGGrrrrrrGGGrrrrrr"/>
		<phase duration="5" state="sssrrrrrrsssrrrrrrsssrrrrrrsssrrrrrr"/>
	</tlLogic>
	<tlLogic id="intersection_1_20" type="static" programID="0" offset="0">
		<phase duration="30" state="GGGrrrrrrGGGGGGrrrGGGrrrrrrGGGGGGrrr"/>
		<phase duration="5" state="sssrrrrrrsssrrrrrrsssrrrrrrsssrrrrrr"/>
		<phase duration="30" state="GGGGGGrrrGGGrrrrrrGGGGGGrrrGGGrrrrrr"/>
		<phase duration="5" state="sssrrrrrrsssrrrrrrsssrrrrrrsssrrrrrr"/>
		<phase duration="30" state="GGGrrrrrrGGGrrrGGGGGGrrrrrrGGGrrrGGG"/>
		<phase duration="5" state="sssrrrrrrsssrrrrrrsssrrrrrrsssrrrrrr"/>
		<phase duration="30" state="GGGrrrGGGGGGrrrrrrGGGrrrGGGGGGrrrrrr"/>
		<phase duration="5" state="sssrrrrrrsssrrrrrrsssrrrrrrsssrrrrrr"/>
		<phase duration="30" state="GGGrrrrrrGGGrrrrrrGGGrrrrrrGGGGGGGGG"/>
		<phase duration="5" state="sssrrrrrrsssrrrrrrsssrrrrrrsssrrrrrr"/>
		<phase duration="30" state="GGGrrrrrrGGGGGGGGGGGGrrrrrrGGGrrrrrr"/>
		<phase duration="5" state="sssrrrrrrsssrrrrrrsssrrrrrrsssrrrrrr"/>
		<phase duration="30" state="GGGrrrrrrGGGrrrrrrGGGGGGGGGGGGrrrrrr"/>
		<phase duration="5" state="sssrrrrrrsssrrrrrrsssrrrrrrsssrrrrrr"/>
		<phase duration="30" state="GGGGGGGGGGGGrrrrrrGGGrrrrrrGGGrrrrrr"/>
		<phase duration="5" state="sssrrrrrrsssrrrrrrsssrrrrrrsssrrrrrr"/>
	</tlLogic>
	<tlLogic id="intersection_1_21" type="static" programID="0" offset="0">
		<phase duration="30" state="GGGrrrrrrGGGGGGrrrGGGrrrrrrGGGGGGrrr"/>
		<phase duration="5" state="sssrrrrrrsssrrrrrrsssrrrrrrsssrrrrrr"/>
		<phase duration="30" state="GGGGGGrrrGGGrrrrrrGGGGGGrrrGGGrrrrrr"/>
		<phase duration="5" state="sssrrrrrrsssrrrrrrsssrrrrrrsssrrrrrr"/>
		<phase duration="30" state="GGGrrrrrrGGGrrrGGGGGGrrrrrrGGGrrrGGG"/>
		<phase duration="5" state="sssrrrrrrsssrrrrrrsssrrrrrrsssrrrrrr"/>
		<phase duration="30" state="GGGrrrGGGGGGrrrrrrGGGrrrGGGGGGrrrrrr"/>
		<phase duration="5" state="sssrrrrrrsssrrrrrrsssrrrrrrsssrrrrrr"/>
		<phase duration="30" state="GGGrrrrrrGGGrrrrrrGGGrrrrrrGGGGGGGGG"/>
		<phase duration="5" state="sssrrrrrrsssrrrrrrsssrrrrrrsssrrrrrr"/>
		<phase duration="30" state="GGGrrrrrrGGGGGGGGGGGGrrrrrrGGGrrrrrr"/>
		<phase duration="5" state="sssrrrrrrsssrrrrrrsssrrrrrrsssrrrrrr"/>
		<phase duration="30" state="GGGrrrrrrGGGrrrrrrGGGGGGGGGGGGrrrrrr"/>
		<phase duration="5" state="sssrrrrrrsssrrrrrrsssrrrrrrsssrrrrrr"/>
		<phase duration="30" state="GGGGGGGGGGGGrrrrrrGGGrrrrrrGGGrrrrrr"/>
		<phase duration="5" state="sssrrrrrrsssrrrrrrsssrrrrrrsssrrrrrr"/>
	</tlLogic>
	<tlLogic id="intersection_1_22" type="static" programID="0" offset="0">
		<phase duration="30" state="GGGrrrrrrGGGGGGrrrGGGrrrrrrGGGGGGrrr"/>
		<phase duration="5" state="sssrrrrrrsssrrrrrrsssrrrrrrsssrrrrrr"/>
		<phase duration="30" state="GGGGGGrrrGGGrrrrrrGGGGGGrrrGGGrrrrrr"/>
		<phase duration="5" state="sssrrrrrrsssrrrrrrsssrrrrrrsssrrrrrr"/>
		<phase duration="30" state="GGGrrrrrrGGGrrrGGGGGGrrrrrrGGGrrrGGG"/>
		<phase duration="5" state="sssrrrrrrsssrrrrrrsssrrrrrrsssrrrrrr"/>
		<phase duration="30" state="GGGrrrGGGGGGrrrrrrGGGrrrGGGGGGrrrrrr"/>
		<phase duration="5" state="sssrrrrrrsssrrrrrrsssrrrrrrsssrrrrrr"/>
		<phase duration="30" state="GGGrrrrrrGGGrrrrrrGGGrrrrrrGGGGGGGGG"/>
		<phase duration="5" state="sssrrrrrrsssrrrrrrsssrrrrrrsssrrrrrr"/>
		<phase duration="30" state="GGGrrrrrrGGGGGGGGGGGGrrrrrrGGGrrrrrr"/>
		<phase duration="5" state="sssrrrrrrsssrrrrrrsssrrrrrrsssrrrrrr"/>
		<phase duration="30" state="GGGrrrrrrGGGrrrrrrGGGGGGGGGGGGrrrrrr"/>
		<phase duration="5" state="sssrrrrrrsssrrrrrrsssrrrrrrsssrrrrrr"/>
		<phase duration="30" state="GGGGGGGGGGGGrrrrrrGGGrrrrrrGGGrrrrrr"/>
		<phase duration="5" state="sssrrrrrrsssrrrrrrsssrrrrrrsssrrrrrr"/>
	</tlLogic>
	<tlLogic id="intersection_1_23" type="static" programID="0" offset="0">
		<phase duration="30" state="GGGrrrrrrGGGGGGrrrGGGrrrrrrGGGGGGrrr"/>
		<phase duration="5" state="sssrrrrrrsssrrrrrrsssrrrrrrsssrrrrrr"/>
		<phase duration="30" state="GGGGGGrrrGGGrrrrrrGGGGGGrrrGGGrrrrrr"/>
		<phase duration="5" state="sssrrrrrrsssrrrrrrsssrrrrrrsssrrrrrr"/>
		<phase duration="30" state="GGGrrrrrrGGGrrrGGGGGGrrrrrrGGGrrrGGG"/>
		<phase duration="5" state="sssrrrrrrsssrrrrrrsssrrrrrrsssrrrrrr"/>
		<phase duration="30" state="GGGrrrGGGGGGrrrrrrGGGrrrGGGGGGrrrrrr"/>
		<phase duration="5" state="sssrrrrrrsssrrrrrrsssrrrrrrsssrrrrrr"/>
		<phase duration="30" state="GGGrrrrrrGGGrrrrrrGGGrrrrrrGGGGGGGGG"/>
		<phase duration="5" state="sssrrrrrrsssrrrrrrsssrrrrrrsssrrrrrr"/>
		<phase duration="30" state="GGGrrrrrrGGGGGGGGGGGGrrrrrrGGGrrrrrr"/>
		<phase duration="5" state="sssrrrrrrsssrrrrrrsssrrrrrrsssrrrrrr"/>
		<phase duration="30" state="GGGrrrrrrGGGrrrrrrGGGGGGGGGGGGrrrrrr"/>
		<phase duration="5" state="sssrrrrrrsssrrrrrrsssrrrrrrsssrrrrrr"/>
		<phase duration="30" state="GGGGGGGGGGGGrrrrrrGGGrrrrrrGGGrrrrrr"/>
		<phase duration="5" state="sssrrrrrrsssrrrrrrsssrrrrrrsssrrrrrr"/>
	</tlLogic>
	<tlLogic id="intersection_1_24" type="static" programID="0" offset="0">
		<phase duration="30" state="GGGrrrrrrGGGGGGrrrGGGrrrrrrGGGGGGrrr"/>
		<phase duration="5" state="sssrrrrrrsssrrrrrrsssrrrrrrsssrrrrrr"/>
		<phase duration="30" state="GGGGGGrrrGGGrrrrrrGGGGGGrrrGGGrrrrrr"/>
		<phase duration="5" state="sssrrrrrrsssrrrrrrsssrrrrrrsssrrrrrr"/>
		<phase duration="30" state="GGGrrrrrrGGGrrrGGGGGGrrrrrrGGGrrrGGG"/>
		<phase duration="5" state="sssrrrrrrsssrrrrrrsssrrrrrrsssrrrrrr"/>
		<phase duration="30" state="GGGrrrGGGGGGrrrrrrGGGrrrGGGGGGrrrrrr"/>
		<phase duration="5" state="sssrrrrrrsssrrrrrrsssrrrrrrsssrrrrrr"/>
		<phase duration="30" state="GGGrrrrrrGGGrrrrrrGGGrrrrrrGGGGGGGGG"/>
		<phase duration="5" state="sssrrrrrrsssrrrrrrsssrrrrrrsssrrrrrr"/>
		<phase duration="30" state="GGGrrrrrrGGGGGGGGGGGGrrrrrrGGGrrrrrr"/>
		<phase duration="5" state="sssrrrrrrsssrrrrrrsssrrrrrrsssrrrrrr"/>
		<phase duration="30" state="GGGrrrrrrGGGrrrrrrGGGGGGGGGGGGrrrrrr"/>
		<phase duration="5" state="sssrrrrrrsssrrrrrrsssrrrrrrsssrrrrrr"/>
		<phase duration="30" state="GGGGGGGGGGGGrrrrrrGGGrrrrrrGGGrrrrrr"/>
		<phase duration="5" state="sssrrrrrrsssrrrrrrsssrrrrrrsssrrrrrr"/>
	</tlLogic>
	<tlLogic id="intersection_1_25" type="static" programID="0" offset="0">
		<phase duration="30" state="GGGrrrrrrGGGGGGrrrGGGrrrrrrGGGGGGrrr"/>
		<phase duration="5" state="sssrrrrrrsssrrrrrrsssrrrrrrsssrrrrrr"/>
		<phase duration="30" state="GGGGGGrrrGGGrrrrrrGGGGGGrrrGGGrrrrrr"/>
		<phase duration="5" state="sssrrrrrrsssrrrrrrsssrrrrrrsssrrrrrr"/>
		<phase duration="30" state="GGGrrrrrrGGGrrrGGGGGGrrrrrrGGGrrrGGG"/>
		<phase duration="5" state="sssrrrrrrsssrrrrrrsssrrrrrrsssrrrrrr"/>
		<phase duration="30" state="GGGrrrGGGGGGrrrrrrGGGrrrGGGGGGrrrrrr"/>
		<phase duration="5" state="sssrrrrrrsssrrrrrrsssrrrrrrsssrrrrrr"/>
		<phase duration="30" state="GGGrrrrrrGGGrrrrrrGGGrrrrrrGGGGGGGGG"/>
		<phase duration="5" state="sssrrrrrrsssrrrrrrsssrrrrrrsssrrrrrr"/>
		<phase duration="30" state="GGGrrrrrrGGGGGGGGGGGGrrrrrrGGGrrrrrr"/>
		<phase duration="5" state="sssrrrrrrsssrrrrrrsssrrrrrrsssrrrrrr"/>
		<phase duration="30" state="GGGrrrrrrGGGrrrrrrGGGGGGGGGGGGrrrrrr"/>
		<phase duration="5" state="sssrrrrrrsssrrrrrrsssrrrrrrsssrrrrrr"/>